55
Lattice="20.0 0.0 0.0 0.0 20.0 0.0 0.0 0.0 20.0" Properties=species:S:1:pos:R:3:momenta:R:3:Z:I:1 pbc="F F F"
Au     13.03580000      12.97430000      11.14180000     -25.15249508    -193.32781755      28.06259210       79 
Au      6.30755000       8.48734000       8.40699000     -45.07600990    -191.46983396     -10.16160117       79 
Au      9.57657000      15.91880000      12.58810000      34.52993491      32.88881389     191.10680689       79 
Au     15.00240000       8.92814000      10.58820000     182.93506096     -71.82764789      13.09024796       79 
Au      6.91693000      15.43190000      12.07740000    -184.98211272     -53.99073791      40.77278893       79 
Au      7.78661000      10.99730000      11.94940000    -135.13196050     142.85483017      11.29835703       79 
Au     11.02580000      14.71900000      10.58160000      82.76736596      26.94721714     176.68959433       79 
Au     12.83840000       9.52359000       6.70662000     -54.93341747    -118.96936943    -147.05240870       79 
Au     10.28160000       4.90235000      11.09680000      56.40852464     112.18193620     151.75339752       79 
Au     15.15230000       9.62102000      13.27020000     135.84899079     -40.83145262     136.65155067       79 
Au     11.47400000      11.70490000       7.25880000      30.38635959     175.31302558     -84.48558655       79 
Au     13.29130000      10.15650000      15.03730000      82.62019639      24.33241249    -177.13734494       79 
Au     14.64800000       6.09849000      10.17730000      34.95969799     190.17077952      37.53260259       79 
Au     10.61970000      11.94300000       9.91080000     136.79818308      39.47646940    -136.10168108       79 
Au      7.33006000       8.43799000      10.92850000     -79.10370379    -141.95276473    -111.30057841       79 
Au      8.18426000       6.22174000      12.05720000    -173.66678588      68.94133655      62.31164993       79 
Au      9.99845000      13.94400000       8.15521000     187.45516559     -50.20034020      33.70888396       79 
Au     12.19740000       5.52819000       9.34993000      54.27059216     166.11700923     -90.86057558       79 
Au     12.49730000       7.74743000      10.92940000     103.81369695     160.14284311      48.71127435       79 
Au     15.19670000      11.47270000      11.38810000     -83.74373450    -175.81605954     -29.52121716       79 
Au     13.71940000       7.87971000       8.45788000    -181.32922180     -73.05789203     -24.04287538       79 
Au     11.50880000      12.10700000      15.25030000    -126.77157951     109.73360671     103.36007116       79 
Au     15.04840000       7.03750000      12.47380000      74.47290592      18.11929874    -181.44222061       79 
Au     10.87010000       9.49942000      14.21920000    -127.48195010     -51.89739855     140.89291871       79 
Au      9.57920000      13.85860000      14.57570000     -50.58574459     142.62115141    -126.07970391       79 
Au      7.44096000       6.10848000       9.50473000     -30.81089296    -189.83821134     -42.51993076       79 
Au      8.82360000      11.80470000       6.90142000     118.28474383      85.36988370    -132.34993183       79 
Au     12.79680000       5.44048000      12.11450000     -86.73428905     165.08435944     -63.40441226       79 
Au      6.29689000      11.19420000       7.63582000     117.24660901     131.67536237     -87.81021435       79 
Au     12.84320000      10.19150000      11.99580000    -181.48357610      46.05065115      61.14614670       79 
Au      8.44803000      15.26040000       9.95910000      22.05345102     168.69295336     -99.25792113       79 
Au      7.89106000      12.61720000       9.35437000       9.62009514       5.92133373     196.64229885       79 
Au     12.60760000      13.55820000       8.64970000      22.18533522     -97.21871150    -169.85916272       79 
Au     10.06040000       9.52770000      11.52270000      44.93802708      97.31396802    -165.24638414       79 
Au      6.11675000      13.10330000      11.22950000    -125.21925018     150.35653170     -22.55781196       79 
Au      7.73033000      15.60890000      14.42590000      65.47233309     -10.41606429     185.47420664       79 
Au     13.72440000      12.27130000      13.62300000     176.44032934      87.50009491      -2.88889164       79 
Au      5.93048000      10.63010000      10.08060000      24.74887298     -48.98801812    -189.16519101       79 
Au      8.37920000       8.64796000      13.43800000     100.47099292    -163.07129735     -45.92530548       79 
Au     10.15610000       9.44089000       6.43101000     -33.69090509    -157.80951614     112.94636626       79 
Au     11.34720000       9.40868000       8.95595000    -115.53827095      53.65226393    -150.22697708       79 
Au     13.51070000      10.92830000       9.21725000      -4.08965523     134.65302610    -143.69286483       79 
Au      9.69591000       5.09857000       8.45224000     163.54962060      91.55133371     -60.54483480       79 
Au     10.89500000      11.90890000      12.72400000     -27.12563809     166.39698172     101.84324403       79 
Au      9.82320000       7.29711000       9.96671000    -131.57704725     -77.07063164     124.67317473       79 
Au      8.57668000       9.92722000       8.91449000     114.16915103     -10.49506304     160.15948529       79 
Au      7.00020000      13.17130000      13.76100000     157.16465381     -81.26932173     -86.54692981       79 
Au      7.52196000       9.49121000       6.21980000      62.55723075     133.24640913    -130.87318082       79 
Au     10.56070000       7.02387000      12.83600000     -86.13786928     100.87648107     145.60221552       79 
Au      8.60594000       7.39701000       7.45498000    -196.94805930       1.86094685       1.94959899       79 
Au     11.31870000       7.14313000       7.39287000    -116.13409212    -145.16918658     -65.07366623       79 
Au     12.98700000       7.84464000      13.72130000      70.40899563     153.71115170    -101.05076596       79 
Au      8.84354000      11.25200000      14.43180000    -117.14687584      83.11610472    -134.77434748       79 
Au      8.89523000      13.46820000      11.87150000     -29.37743192    -153.12038959    -120.36160063       79 
Au     11.80780000      14.35070000      13.22810000      26.04314039     -70.51613614     182.05776969       79 
