55
Lattice="20.0 0.0 0.0 0.0 20.0 0.0 0.0 0.0 20.0" Properties=species:S:1:pos:R:3:Z:I:1:momenta:R:3 pbc="F F F"
Au     12.73650000       9.91451000      13.15330000       79    -109.39588396     112.10357345    -119.41997955 
Au     12.89900000       7.29651000      12.44550000       79     185.78816645     -12.75751449      64.15454117 
Au     12.34750000       7.92792000      15.02380000       79      33.23207448     -92.42301183    -170.73200705 
Au     11.76880000       5.11917000      11.54300000       79     -25.25314743       5.05124905     195.27561433 
Au      9.26553000       5.92953000      12.07120000       79    -103.52408325     -30.35903158    -164.79349353 
Au     11.08710000       5.86340000      14.03400000       79    -161.43264665     -38.56475902     106.05688133 
Au     10.36250000       8.30548000      13.10820000       79      64.06689598     184.20302438      27.57681580 
Au     13.31710000       6.61634000       9.76552000       79      53.97393611     173.37470205      76.31401597 
Au     13.36470000       9.22362000      10.49400000       79     171.84339112      95.95881702      -7.58659919 
Au     13.95970000      11.14140000       8.69406000       79     -31.83220564    -120.46170627    -152.54995945 
Au     10.79510000       7.53317000      10.45220000       79     -71.15276089    -183.50355313       7.71574541 
Au     10.85370000      10.11060000      15.20770000       79     -95.00899078     114.04789564     129.46880432 
Au      8.79696000      13.39260000      12.83530000       79     -10.11269266      33.57901871     193.81946515 
Au     11.25470000      12.15560000      13.27920000       79     -34.11915514     -85.80990238    -173.97800444 
Au     10.61400000      13.15240000      10.78810000       79     -15.38195312    -126.28302576     150.37218841 
Au      9.70024000       7.63539000      15.57820000       79    -120.27567040     121.34417120      98.00590466 
Au     13.02540000      11.89200000      11.13160000       79     195.92867756      -6.89578775     -18.97902908 
Au      6.30267000      10.06120000      13.33010000       79     111.84895947     158.83654419     -32.50483992 
Au      8.07624000       8.58109000      11.24400000       79     -30.07162945     191.23660998      36.33260555 
Au      8.91404000      10.67320000      13.17730000       79     163.66364802     103.13646478     -37.05242328 
Au      7.03163000      12.24090000      14.59220000       79    -127.09700403    -122.74978828     -87.03242595 
Au      7.67022000       7.65358000      13.73290000       79      49.35310623     -11.76001232    -190.32019109 
Au      8.10912000       9.81532000      15.51190000       79     -50.61053606    -144.79376134     123.56837151 
Au      6.78253000       6.06149000      11.42370000       79    -185.43695064     -11.44119002     -65.40671703 
Au      9.45915000      12.33250000      15.31680000       79       0.00000000       0.00000000       0.00000000 
Au      5.37980000       8.00771000      12.05360000       79     108.32541515    -160.38134666      36.59549424 
Au     12.72780000       6.33603000       7.25016000       79     183.64826711      14.07169259     -69.79329179 
Au      9.00308000       9.19079000       8.61976000       79     -32.81160944     -21.66560008    -193.00207818 
Au     11.76120000       8.77155000       8.24355000       79     123.36926446      34.98244986     149.50603637 
Au      7.80057000      10.33260000       5.81260000       79    -168.74484893      11.19290814    -100.97374356 
Au      9.31776000       8.29687000       5.13902000       79      16.99205212     190.40424636      47.46888722 
Au     11.97230000       8.20626000       5.59301000       79     -97.64239589      17.70126514    -170.14238114 
Au     11.24750000      11.39800000       8.74635000       79     -59.52730932     148.62934926     114.72409558 
Au      8.48096000       6.42078000       9.34304000       79     -42.50447286    -190.96128630      22.86829781 
Au     10.05030000       6.89449000       7.17397000       79      41.71543583       1.39231101    -192.49334016 
Au      7.44268000       7.81775000       6.99031000       79    -131.91062393      98.49981985     108.13498466 
Au      6.17964000       7.84213000       9.42031000       79     173.86028929      48.04005625      79.12366855 
Au     11.01330000       5.25605000       9.05275000       79       0.00000000       0.00000000       0.00000000 
Au     14.28010000       8.48208000       7.85671000       79    -182.42948166     -71.78900532     -19.01644185 
Au      5.72543000      10.28200000      10.67470000       79     194.42560947      20.06880247      24.32545313 
Au      6.37511000      12.58590000      12.01040000       79     171.38307479     -95.62993216     -16.69011303 
Au      8.13508000      14.06300000      10.20860000       79    -109.53754930     -99.45133850    -130.02599235 
Au     10.81670000      10.23500000      11.13770000       79      97.09346191     -42.33489417     166.06149015 
Au      8.60111000      11.91710000       8.07551000       79     -44.20461453     132.76117459     138.62259808 
Au     10.20890000      14.13220000       8.22509000       79    -158.83895657       7.06885802    -116.25841580 
Au      6.38138000      10.17460000       8.07088000       79      62.55653858      65.27979185    -174.98865786 
Au      6.44518000      12.47170000       6.48160000       79     -62.49407640    -154.70686414    -104.67128892 
Au      8.28301000      11.34060000      10.62720000       79     162.51855537      26.51324998     108.07668045 
Au      7.62678000      14.43550000       7.60875000       79      90.84652570    -122.49992966     124.64540955 
Au      6.11595000      12.65620000       9.20499000       79     -24.94140411      76.70947642     179.69247261 
Au     13.11730000      10.45820000       6.37967000       79      38.44862997     182.18255978      64.24188578 
Au     11.81860000      12.81520000       6.55462000       79      92.77433436    -166.15368824      50.81020459 
Au     12.75660000      13.55900000       8.99451000       79     -20.57523800    -170.22613940     -96.93050691 
Au      9.15329000      12.96650000       5.80521000       79     119.79952710     130.94235630      85.42818479 
Au     10.41290000      10.44580000       6.24625000       79    -155.08957383     118.65433048      25.77161364 
