55
Lattice="20.0 0.0 0.0 0.0 20.0 0.0 0.0 0.0 20.0" Properties=species:S:1:pos:R:3:Z:I:1:momenta:R:3 pbc="F F F"
Au      9.67461000      10.48760000       8.88224000       79     -32.81160944     -21.66560008    -193.00207818 
Au      6.51931000       6.58721000      12.24540000       79     158.38325481      62.74619693      98.86081877 
Au      9.02957000       7.79556000       7.52620000       79     123.36926446      34.98244986     149.50603637 
Au      9.48341000      10.28200000       6.04019000       79     -67.37324368      -8.54623747    -184.88810125 
Au     12.92170000       8.17360000      11.41150000       79    -106.04684503     -60.32896270    -154.62950896 
Au     12.23360000       6.83493000       8.72406000       79    -152.79729119       9.20852661    -123.95157509 
Au     10.30540000       7.99548000      10.11830000       79     192.76935970      29.62931169     -27.52961993 
Au      6.94117000      11.34460000       5.51388000       79      68.21012369      22.67352893     183.38236621 
Au     10.03490000       7.84430000       4.89631000       79      92.32549304       0.38531423     173.98751964 
Au     12.42740000       9.62914000       9.19660000       79      69.91064098       7.52285110     183.98834504 
Au      4.78043000       9.04159000       8.75254000       79     -15.30923634     188.59487374     -54.71200056 
Au      4.95386000       8.48505000      11.33220000       79     152.39387312     111.90195349     -55.22555896 
Au      7.46500000       8.65023000       5.14407000       79     -62.54931125      65.00625178     175.09304102 
Au     10.67790000       5.95470000       6.68820000       79      22.01226609    -127.57838138    -148.44197139 
Au      5.22217000       6.34539000       9.57649000       79    -123.64364487     146.06180462     -46.62617760 
Au      4.99175000      11.64080000       7.54214000       79    -123.13084574     -20.76045134     152.32728124 
Au      9.13638000       6.02233000      11.84670000       79      23.28967759    -162.87769676     108.27857101 
Au      8.20279000       6.10127000       5.53088000       79      56.86035148     151.57206607    -112.19898101 
Au      7.54533000       5.28092000       7.91167000       79     119.36965200     -93.59067968    -125.64821121 
Au      7.18112000       9.81401000       7.73391000       79       8.15474122     -94.17696240    -172.80046896 
Au      6.10138000       7.27303000       7.10241000       79     -28.36727759       6.76115578    -194.79575575 
Au      7.45880000       7.57639000       9.76597000       79      60.86914152    -126.78501259    -137.89963856 
Au      9.81066000       5.46030000       9.21765000       79     123.30144724     -38.26364415     148.75634026 
Au      7.26554000       4.82369000      10.40840000       79     -36.29528339     -35.78257123    -190.25788321 
Au     11.71940000       5.84277000      11.13960000       79      -9.64951446    -116.55070465    -158.48855554 
Au     11.51580000       8.73638000       6.91319000       79     183.64826711      14.07169259     -69.79329179 
Au     13.89100000      11.66160000       8.73887000       79     121.61809899     154.71467899      -8.25882709 
Au     10.92550000       7.67675000      13.08260000       79    -120.51088249      13.02276150     155.25249437 
Au      8.47433000       8.84483000      12.04890000       79     175.30674178      69.13433480     -57.30438168 
Au      8.94563000      12.05040000      11.11430000       79     -86.41481623    -107.19986121    -140.84200870 
Au     10.92200000      10.23330000      11.65430000       79    -146.99893658      51.13661030    -120.71520970 
Au      9.61761000       9.62439000      14.36710000       79      10.97866014     -60.13714464    -187.23993959 
Au     13.76620000      10.70150000      11.32150000       79    -183.45718865     -42.73759771      57.55657909 
Au     10.19280000      12.10140000      13.67620000       79    -176.15775757      84.38772406     -25.35662825 
Au      6.36825000       8.84169000      13.72220000       79     -61.84447536      71.35051614    -172.85880607 
Au      7.55793000      11.22240000      13.36480000       79       0.00000000       0.00000000       0.00000000 
Au     12.52650000      12.49860000      12.71760000       79       0.00000000       0.00000000       0.00000000 
Au      8.42081000       7.20649000      14.18070000       79       0.00000000       0.00000000       0.00000000 
Au     11.85280000      12.31690000      10.12540000       79    -182.42948166     -71.78900532     -19.01644185 
Au      4.97922000      10.81050000      12.61540000       79      59.51976918      39.01654204     183.65976328 
Au      8.23790000      13.85600000      13.08650000       79     -81.22015686      15.25287116    -178.79160540 
Au      4.44206000      11.47580000      10.08050000       79     194.42560947      20.06880247      24.32545313 
Au      7.99622000      14.66260000      10.53330000       79    -161.59188564      20.36900262     110.76537524 
Au      6.78718000      10.29580000      10.53600000       79     -86.41481623    -107.19986121    -140.84200870 
Au      9.96121000      13.63670000       8.91049000       79     196.84406474       3.24674163      -6.13799363 
Au      5.47464000      14.00470000       9.10206000       79    -190.62508356      49.50159617      -2.73342587 
Au     10.51720000      14.11350000      11.72500000       79    -183.45718865     -42.73759771      57.55657909 
Au      6.21644000      12.92800000      11.51050000       79     171.38307479     -95.62993216     -16.69011303 
Au      6.28638000      13.68690000       6.49881000       79     -45.86155276     190.79207892     -17.05587055 
Au      7.43142000      12.37090000       8.75400000       79     132.15557153      -3.47560571    -146.00899699 
Au      7.84337000      15.01630000       7.95578000       79     137.07147725     141.08098522      10.16699831 
Au      8.96922000      12.83700000       6.57928000       79     -27.13051509     150.82875357    -123.73529961 
Au     11.51900000      11.66740000       7.41110000       79    -146.88470754    -129.59148701      20.65747583 
Au     12.37520000       9.98445000      13.71100000       79       0.00000000       0.00000000       0.00000000 
Au      5.03993000       9.47715000       6.01578000       79       0.00000000       0.00000000       0.00000000 
