55
Lattice="20.0 0.0 0.0 0.0 20.0 0.0 0.0 0.0 20.0" Properties=species:S:1:pos:R:3:momenta:R:3:Z:I:1 pbc="F F F"
Au      9.15592000       9.37191000      15.57190000    -167.22992451    -103.87909402       6.25206347       79 
Au     10.61720000      13.77330000      12.88950000    -116.25338820       2.41988863    -158.98143286       79 
Au      6.38293000       6.92639000      12.95840000     150.21556694      43.12477686     119.88052049       79 
Au      9.34109000       4.57912000      10.55960000    -164.58397315     -28.03682411    -104.50767627       79 
Au     11.77400000       9.96349000      15.55390000     130.41805541    -141.63062051      41.56561416       79 
Au      5.20493000       9.38539000      13.41130000     103.26708262      -4.67133602     167.66004411       79 
Au      5.92712000       8.51754000      10.86570000     -86.42336909    -169.27446502      51.70066622       79 
Au      8.51661000      12.00520000      12.32280000     157.72411361      -8.22692814     117.69122212       79 
Au      7.87212000       9.25745000      12.82390000      28.87693357     -47.62730960     188.92740460       79 
Au      6.74996000       8.39805000      15.22210000     -58.91542016      83.69276539     168.28635242       79 
Au     11.13610000       6.42848000       9.74335000    -104.50265976     135.27304243     -97.85806158       79 
Au     12.70220000       7.55823000      11.84650000    -117.53978933    -157.57545293     -12.25465957       79 
Au      8.77422000       7.34967000      11.01860000    -101.61551939     168.61547232      -6.23785517       79 
Au      9.99433000      11.65820000      14.50500000     180.78124194      62.11060827     -47.49965290       79 
Au     10.53890000       9.17981000      13.17840000    -151.74320571     -40.13125847     118.99278859       79 
Au     11.74140000      11.42690000      12.05590000     115.49283658    -123.34317247    -101.21101041       79 
Au     10.68350000       6.02371000      12.48660000    -122.58530148    -105.79981692     112.13850687       79 
Au     13.68540000       9.84030000      10.71680000     112.60497131     105.77777348    -122.17604182       79 
Au     12.67950000      12.25080000      14.34890000      23.06625520    -177.72027225      81.72670815       79 
Au     14.47370000      11.77650000      12.33610000     -95.26984026    -172.31100484      -5.32703189       79 
Au      8.12185000       5.03515000      12.70340000    -146.39450270     122.90464461      47.52788690       79 
Au      8.94652000       7.05487000      14.24030000     -68.07393544    -120.54970808    -140.10535078       79 
Au     10.96600000       9.16450000      10.56280000     -50.28087229       1.12398252     190.43731952       79 
Au     13.33270000       9.60350000      13.49570000     142.57743628     -98.63663932      93.47882204       79 
Au      6.04538000      11.12510000      11.64870000     147.35894013     -29.76942025    -127.25928848       79 
Au     11.78120000       7.44719000      14.55570000    -125.84287206    -146.45366318     -38.86770144       79 
Au      6.81777000       5.77137000      10.41410000      78.65168735    -162.16830618     -79.44277607       79 
Au      9.29512000      13.63770000       6.02744000      26.60035752     135.93637481     140.03401410       79 
Au     12.88920000       8.10855000       8.72351000      60.63046631      58.20647866     178.13409140       79 
Au     12.71390000       9.38634000       6.29395000    -126.02012489     144.96561553      43.58555448       79 
Au      9.61965000       8.59297000       8.30102000    -171.54779013      88.24746136      39.74346974       79 
Au     13.51340000      12.09800000       6.90158000      96.25074788     -15.16764506     171.17692075       79 
Au      7.26334000      12.67840000       9.76887000     167.61979588    -101.33206264      20.76581890       79 
Au     11.74080000      10.63660000       8.38191000    -150.46742133      45.20029072    -118.79516387       79 
Au     11.41020000      13.45160000       7.82741000      79.87532948       5.19005779    -179.96887832       79 
Au     11.19280000      11.71940000       5.69147000      74.53611811    -155.77905635     -94.72620979       79 
Au     11.32130000      14.62010000      10.30980000     116.22148613     -36.93653471     154.67404659       79 
Au     13.20810000      12.46590000       9.80457000    -154.94929044     -94.05733333     -77.06969287       79 
Au      8.76334000      14.48290000      11.15160000     -76.83291477      95.62036259     154.10792188       79 
Au      6.02000000      10.49720000       8.80220000      92.98523147      29.24965614    -171.15491949       79 
Au      6.98070000       7.82283000       8.55292000     -68.48617392     176.04005338      55.81528205       79 
Au     10.06640000       9.32081000       5.70577000     -31.18668846     172.21395781      90.36340698       79 
Au      8.85537000       5.88578000       8.38290000     147.73709359     102.96819711      79.79413314       79 
Au      7.36645000       9.68930000       6.63222000      71.67789982     182.28291953     -20.76097418       79 
Au      8.24709000      10.08390000      10.16790000     -66.22685704     182.95257009      30.62944053       79 
Au      8.94662000      14.29170000       8.51134000    -169.62261181     -99.33155393     -12.53850389       79 
Au      8.50441000      11.43080000       5.01035000       3.22707955    -110.59180594    -162.95656028       79 
Au      6.96378000      12.51960000       7.04247000      82.10162692     134.23386194    -118.47529400       79 
Au     11.15550000       7.04827000       6.91307000    -144.00927467      -9.24524352    -134.05840668       79 
Au     14.47800000      10.23900000       8.24884000     -80.22400455     153.46361357     -93.85537025       79 
Au      9.18583000      11.41470000       7.70784000      -5.76068252    -161.31729993    -112.86870869       79 
Au     10.13680000      12.28560000      10.11690000     124.37095080    -116.40927513      98.87643492       79 
Au     13.10460000      13.90680000      12.14180000       0.00000000       0.00000000       0.00000000       79 
Au      7.14552000      11.03480000      14.53890000       0.00000000       0.00000000       0.00000000       79 
Au      8.46905000       7.26462000       6.20113000       0.00000000       0.00000000       0.00000000       79 
