55
Lattice="20.0 0.0 0.0 0.0 20.0 0.0 0.0 0.0 20.0" Properties=species:S:1:pos:R:3:momenta:R:3:Z:I:1 pbc="F F F"
Au     11.34480000       9.04391000       9.81466000     128.60115087    -147.60620647      21.67842078       79 
Au      9.21760000       8.88481000      15.08830000    -169.36438298      94.31390661      34.87685365       79 
Au      6.67676000       9.52785000      14.24940000      23.72846366    -178.77182672      79.20477324       79 
Au     13.13060000       7.13339000      13.81290000    -154.03871873     -92.50368558     -80.69041709       79 
Au     11.83380000       9.36904000      14.62170000     141.96851591      77.41052054     112.46490084       79 
Au     12.49850000       6.69688000      10.96060000       0.50728550      67.61295698     184.99738601       79 
Au     13.96320000       4.49392000      11.14230000      27.00786990       6.43639539     194.99987154       79 
Au     10.63530000       6.60619000      14.63500000       0.00000000       0.00000000       0.00000000       79 
Au     10.68410000       8.14378000      12.51240000      91.91213587    -173.92421135       9.91615388       79 
Au      9.95683000      11.26670000      14.38210000     175.79765758     -12.03284158      88.01247885       79 
Au     14.93890000       6.99225000      11.87130000      30.58790893    -112.35520779     158.85996737       79 
Au      7.49582000      12.15530000      13.75000000    -179.04211709      66.66352194     -47.91343518       79 
Au     13.35010000      11.20570000      10.40260000     -23.32308381     102.72004169    -166.43445833       79 
Au     10.89400000      10.96040000      11.77160000      38.82599908      -7.98745198     192.93663345       79 
Au      8.03803000      14.70540000      12.52580000      41.98711784      77.13008696     176.30607971       79 
Au      9.95764000      14.40920000      10.46760000      46.87371875     137.65113363    -132.85639625       79 
Au     14.23060000       8.75252000       9.79751000     -71.52766447    -182.24741260     -21.57489141       79 
Au     10.29930000      13.48690000      13.08150000    -173.71583834     -46.62839117     -80.27703763       79 
Au      6.00314000      10.71250000      11.82770000      60.27881505     -28.12247294    -185.39523482       79 
Au      8.46286000      12.36740000      11.26180000     -35.41570912     192.33386787     -23.43529264       79 
Au     12.28150000      13.40610000      11.39720000     163.34720977     -30.88162033     105.64003364       79 
Au     11.11050000      12.15100000       9.27853000     152.14479692     -58.48315706    -110.57795094       79 
Au     12.68310000      10.18270000       7.87486000     -47.83116439    -104.55809916    -159.92368723       79 
Au      8.67147000      12.86860000       8.39259000      96.15391389     150.68641987      82.72744304       79 
Au      7.30542000      14.52570000       9.96904000       0.00000000       0.00000000       0.00000000       79 
Au     13.26860000       9.31018000      12.27030000       0.00000000       0.00000000       0.00000000       79 
Au     12.61160000      11.76630000      13.49420000    -114.36630687    -133.10330283     -89.44082263       79 
Au      8.98947000       6.95301000       5.36857000    -140.50440539      74.68005901     116.09135616       79 
Au     11.00070000       5.83569000       6.63752000      73.45374871     106.58825657    -148.45636559       79 
Au      7.36855000      10.59400000       7.33054000      86.80787580      52.04103815     168.97314926       79 
Au      6.96243000       5.52878000      11.76140000    -133.91717713     140.95567268      31.51967850       79 
Au      8.35209000       5.53338000       7.49484000     140.83289582    -133.94217975      31.95919366       79 
Au     14.82710000       6.21636000       9.35524000     -18.08395476    -191.80426879      40.98652430       79 
Au     12.76920000       4.73435000       8.62277000     -31.19936364      64.22291725     183.56965635       79 
Au     10.31150000       3.70974000       8.13833000     169.05296492      90.28379108     -45.45034920       79 
Au     10.45540000       6.16964000       9.31071000     -66.13208148     152.86391765    -105.14262980       79 
Au      6.59606000       6.45970000       9.28333000     187.67518633      51.93178123     -29.61277859       79 
Au     10.15170000      10.80910000       7.14348000      79.65205358     108.00103937     144.17741840       79 
Au      6.87826000       7.89897000       6.93409000     179.84444661      26.30400828     -75.89384885       79 
Au      9.73749000       5.51112000      12.17160000    -171.49305292     -72.62168662      64.12507742       79 
Au      8.48667000       4.42310000       9.96951000     170.00942152     -87.64545914      47.01991289       79 
Au      9.28713000       8.20192000       7.88259000    -124.74361942      85.90056517     125.92030988       79 
Au      8.04839000       7.14508000      13.57870000      95.84124777     119.61493206    -123.70337658       79 
Au      6.11036000       8.03738000      11.90250000     140.99533948    -137.48382915       3.78326428       79 
Au      8.66985000       9.43736000       5.39625000      62.69014981    -176.87617778      59.83782227       79 
Au      8.86439000      10.31500000       9.61284000     -78.75418060     109.95854972    -143.18763390       79 
Au      8.46235000       9.75995000      12.43860000    -180.64541547     -45.94604657     -63.65529670       79 
Au      6.41993000       9.14661000       9.43957000    -165.06733126     -56.68072689     -91.30100477       79 
Au     11.29820000       3.88537000      10.67590000    -125.65620854      14.28866718     151.00381905       79 
Au      8.55169000       7.59368000      10.66210000     127.03875996    -100.77469466    -111.80973350       79 
Au     11.20450000       8.54680000       6.05297000    -106.49357960    -101.60802691     130.88440890       79 
Au      6.35862000      11.97380000       9.47328000      10.24020797    -120.42505163    -155.52731980       79 
Au     12.72210000       7.41545000       8.00246000     113.29481317    -154.07837696      47.11625180       79 
Au      5.90871000      13.34590000      11.85340000       0.00000000       0.00000000       0.00000000       79 
Au     12.17020000       4.88157000      13.05920000       0.00000000       0.00000000       0.00000000       79 
