55
Lattice="20.0 0.0 0.0 0.0 20.0 0.0 0.0 0.0 20.0" Properties=species:S:1:pos:R:3:Z:I:1:momenta:R:3 pbc="F F F"
Au      6.00262000       6.37685000      11.48090000       79    -145.08591149     -16.94661864     132.13134574 
Au      7.62242000       8.12112000       6.62014000       79     -70.65528846     -90.81785285    -159.86165875 
Au     10.22380000      13.06990000       6.99674000       79     127.92426049     143.40054842     -43.21421539 
Au     11.63070000      12.20550000      12.08630000       79     -51.92058024     111.12476352     154.11470535 
Au     12.95010000      11.20180000       9.95277000       79      51.97599915     -42.29259160    -185.21780241 
Au      8.34610000      12.01340000      13.82490000       79      47.13668723     186.11705464     -43.98155082 
Au      8.42270000       9.30055000      13.93080000       79      48.04991089      96.35176757     164.93436595 
Au      6.15448000       8.13154000      13.27990000       79      64.48666797     161.68203220      92.17479178 
Au      7.84409000      14.36540000       7.16710000       79     189.60483298     -52.61903854      -8.77759728 
Au      5.53296000      11.55270000       9.81166000       79      76.53607000    -179.27202035     -28.27675424 
Au     14.76960000      13.03350000       9.22100000       79      65.15056879    -154.67162737     103.09167375 
Au     13.02760000      12.08870000      14.36220000       79     180.18761597     -46.74293664     -64.36864958 
Au      9.14593000      11.19130000      11.44940000       79      11.01947403    -105.30319153     166.08916632 
Au     10.61000000      13.02480000      14.60040000       79      57.07718881    -142.14304431     123.82791121 
Au     11.88070000       7.62494000       9.13667000       79     169.52053364     -57.09157947     -82.45691209 
Au     15.03850000      10.63580000       8.19032000       79    -112.81959528      44.54830454    -155.18695050 
Au      8.15349000       5.60085000      10.40210000       79     134.17976589    -130.38589751     -61.57199265 
Au      8.25926000       8.24641000      11.45110000       79     131.39606555     -89.00143964    -116.66027525 
Au      8.23954000      12.52480000       9.09667000       79    -106.67848864     147.59770995      75.03611265 
Au     14.09310000       8.76742000       9.97968000       79     161.41706120     -85.19793884      74.03813674 
Au     10.09560000      15.49930000       8.15130000       79     -41.42287369      65.18730825    -181.19205971 
Au     12.80090000      12.13730000       7.40596000       79     -96.67213952     171.35375604      -9.39094527 
Au     10.98580000      10.85200000       5.76452000       79     -14.91928424    -120.53461060     155.06329265 
Au     13.42560000      10.02560000      12.50260000       79     104.77063803       4.15537647    -166.73826308 
Au      8.26070000      12.34040000       5.21428000       79     -38.98285491     192.55974902      14.03147184 
Au     11.04740000       9.25757000      11.17950000       79    -189.85141939     -43.42185501     -29.44118180 
Au      6.45876000      10.25280000       5.32140000       79     130.59151856    -117.13411087      89.56147316 
Au     12.19510000      14.55180000      13.15120000       79     109.72025211     125.97912009    -104.33853411 
Au      8.50559000      10.59200000       7.07972000       79    -189.26916899      -6.31213235     -54.15847834 
Au      8.89879000       9.62913000       4.63842000       79      69.98865318    -181.34952804     -31.77639418 
Au     10.92250000      15.71880000      10.71550000       79     141.86611876     -54.97349105    -125.09085400 
Au      6.57230000      10.58100000      12.25310000       79    -120.43480047      13.07597918     155.30704983 
Au     13.16630000      14.43300000      10.72090000       79     161.86556260      70.93603009     -86.96793319 
Au     12.55790000      14.62810000       8.19165000       79      14.08696001      46.07134618     190.98374470 
Au      6.19929000      12.19440000       7.17400000       79    -121.71945200      24.44711895     152.91342486 
Au      5.31281000       8.85947000      10.66430000       79      73.05044570     -95.50059188    -156.00984410 
Au     12.82040000       7.43763000      11.88750000       79    -115.71496322     159.38680895      -1.30174532 
Au     14.37910000      12.65770000      12.17900000       79      38.07966462     -36.25996639     189.81821857 
Au      7.03989000      13.14520000      11.52500000       79     -84.51086877     138.98713765     111.06885589 
Au      9.25158000       7.69107000       8.90435000       79     111.79434320    -137.37547030     -86.17312290 
Au      6.01426000      14.09240000       9.13473000       79      59.39608514     178.69570652      57.75596647 
Au      6.55795000       7.25050000       8.97197000       79    -130.99826291     -55.84890510    -136.07408657 
Au      5.59031000       9.57893000       7.79582000       79      -9.29638643    -188.86983485     -55.11410713 
Au      7.60729000       9.86279000       9.49199000       79     -25.03977616     -19.34082745    -194.40870383 
Au     10.55580000       7.74877000      13.42710000       79    -146.76580743     -93.80843978      91.95420881 
Au     10.40250000       8.42876000       6.63325000       79     -95.24557572     138.88019263     102.15857538 
Au     10.80750000      13.21260000       9.68350000       79    -174.49627823      86.20640688     -30.25403146 
Au     15.54670000      10.84240000      10.76370000       79     -52.65709946     164.33328482      94.96106307 
Au      8.34533000      15.07850000      10.01570000       79     169.72642097     -97.39786094     -22.41429970 
Au     10.60500000      10.43620000       8.70463000       79     157.19724005     -12.88398821     117.97810259 
Au      8.25178000       6.31155000      13.10840000       79     -62.51427488     154.38146236    -105.13863057 
Au      9.53995000      13.99330000      12.25830000       79    -122.24931456     149.80190501     -37.55391415 
Au     10.46630000       6.41416000      11.17310000       79    -180.19802376       4.64505609      79.39079172 
Au     12.82600000       9.43574000       7.44756000       79      50.25576535     -78.10317039    -173.69529339 
Au     10.85790000      10.39520000      13.88280000       79    -186.47745316      56.63512137     -28.53812561 
