55
Lattice="20.0 0.0 0.0 0.0 20.0 0.0 0.0 0.0 20.0" Properties=species:S:1:pos:R:3:Z:I:1:momenta:R:3 pbc="F F F"
Au     12.54180000       9.90089000      11.97290000       79     -15.28666811      88.96539277    -175.06364211 
Au     10.44190000       7.88342000      11.59340000       79     -46.87080845    -156.35880329    -110.23091250 
Au     11.70390000      10.64380000       7.69336000       79    -182.42948166     -71.78900532     -19.01644185 
Au      9.82679000       5.94488000       7.89376000       79      -2.66616314      14.84997571    -196.38781000 
Au     11.99760000       7.61349000      13.60580000       79    -120.51088249      13.02276150     155.25249437 
Au     14.06110000       7.10732000       8.51032000       79      46.01954481     -55.14877259    -183.40288029 
Au     13.30310000       7.45260000      11.10280000       79     -76.60339454      65.87008724    -169.08238724 
Au     11.50590000       8.02784000       9.04155000       79     -67.76347243     115.07750441    -144.77942500 
Au     13.74800000       9.62004000       9.49108000       79     121.61809899     154.71467899      -8.25882709 
Au     12.00960000       5.41062000      11.94580000       79     159.98777653     114.64153884      -7.55189085 
Au     12.08570000       6.87846000       6.66529000       79     152.19624007     -77.35982610      98.22201350 
Au     10.58790000      10.37120000      10.16370000       79    -146.99893658      51.13661030    -120.71520970 
Au     12.73580000      12.06370000      10.00100000       79    -183.45718865     -42.73759771      57.55657909 
Au      9.67871000       5.51617000      10.55300000       79    -182.97358641      31.98721046      65.52318036 
Au     12.12980000       5.46603000       9.29236000       79     195.77121563      17.42287958      12.87930593 
Au      9.44293000      11.26970000       5.97656000       79      97.09346191     -42.33489417     166.06149015 
Au     11.53270000       9.15899000       5.11135000       79     143.19748963      29.03500660    -132.08803685 
Au     14.29880000      11.51010000       7.67298000       79     -73.17592846     178.41959024     -40.09408230 
Au     12.67960000      11.60310000       5.45194000       79      38.44862997     182.18255978      64.24188578 
Au     10.93800000      13.62200000       5.62392000       79      92.77433436    -166.15368824      50.81020459 
Au     12.60860000      13.49190000       7.71471000       79     -20.57523800    -170.22613940     -96.93050691 
Au     13.68700000       9.08456000       6.74660000       79     157.66582768      25.64524846    -115.23719077 
Au     10.54630000      11.36410000       3.67461000       79    -155.08957383     118.65433048      25.77161364 
Au      9.78595000       6.70594000       5.33424000       79     155.38959791     -61.03578104     104.52037321 
Au      9.02190000       8.95429000       4.30438000       79      40.45877447      29.50934048    -190.49432673 
Au      9.69050000       8.71624000       7.10089000       79     167.37996213     -79.36849366      66.93573495 
Au      7.74684000      11.09770000       3.74229000       79     -29.45976395      77.32136181    -178.74375916 
Au      8.77546000      13.39320000       4.20295000       79     163.42469329      67.06458183     -87.12355369 
Au      8.49406000       7.79680000       9.50468000       79    -121.78426145     -17.71100677    -153.78789297 
Au      7.03980000       9.59448000       6.04207000       79     190.02587976      10.32194630      50.78803567 
Au      7.57131000       7.15346000       6.93243000       79      61.58023242     138.65545814     125.61186657 
Au      7.86611000       7.15456000      12.20450000       79     158.38325481      62.74619693      98.86081877 
Au      5.82619000       8.78104000      11.48970000       79     108.32541515    -160.38134666      36.59549424 
Au      9.85763000       5.61771000      13.23790000       79      -8.39420415     128.31180251     149.20261659 
Au      8.08604000      10.60440000       8.42386000       79     -32.81160944     -21.66560008    -193.00207818 
Au      6.13447000       8.75318000       8.73374000       79     173.86028929      48.04005625      79.12366855 
Au      8.17155000       9.85671000      11.34910000       79     158.38325481      62.74619693      98.86081877 
Au      5.98773000      11.25810000      12.73090000       79      59.51976918      39.01654204     183.65976328 
Au      5.93876000      11.19360000      10.16680000       79     194.42560947      20.06880247      24.32545313 
Au      7.42536000       9.37907000      13.82940000       79     175.30674178      69.13433480     -57.30438168 
Au      9.20397000      14.45630000      12.14150000       79    -161.59188564      20.36900262     110.76537524 
Au      8.39786000      12.08800000      13.24020000       79     -86.41481623    -107.19986121    -140.84200870 
Au     10.19850000      10.04230000      13.32360000       79      10.97866014     -60.13714464    -187.23993959 
Au     11.01860000      12.34060000      12.17230000       79    -176.15775757      84.38772406     -25.35662825 
Au      6.69822000      13.59810000      11.45000000       79     171.38307479     -95.62993216     -16.69011303 
Au      8.61369000      14.98600000       9.53561000       79    -109.53754930     -99.45133850    -130.02599235 
Au     11.14110000      14.24430000      10.21700000       79      -8.13711908     195.14363448      25.46667107 
Au      9.99634000      12.78630000       8.20522000       79     -44.20461453     132.76117459     138.62259808 
Au     10.69830000      15.38060000       7.80211000       79    -158.83895657       7.06885802    -116.25841580 
Au      5.39250000      11.03890000       7.59319000       79      62.55653858      65.27979185    -174.98865786 
Au      6.93508000      12.38620000       5.95911000       79     -62.49407640    -154.70686414    -104.67128892 
Au      8.76474000      12.39570000      10.54660000       79     162.51855537      26.51324998     108.07668045 
Au      8.48771000      14.45460000       6.69342000       79      90.84652570    -122.49992966     124.64540955 
Au      6.89252000      13.18930000       8.57072000       79     -24.94140411      76.70947642     179.69247261 
Au      9.43198000       7.79973000      14.39680000       79       0.00000000       0.00000000       0.00000000 
