55
Lattice="20.0 0.0 0.0 0.0 20.0 0.0 0.0 0.0 20.0" Properties=species:S:1:pos:R:3:Z:I:1:momenta:R:3 pbc="F F F"
Au     11.87500000       8.18323000       6.94980000       79     -50.90073631     -18.69642503     189.35511838 
Au      8.19833000      10.73320000       5.43736000       79     195.34766303     -24.52720175      -5.78869993 
Au      7.78924000       8.17787000       4.66476000       79      47.10867809     191.13568232      -6.61252709 
Au      9.32109000      12.71780000       6.93774000       79      86.16220339     -12.26856142     176.69566840 
Au     10.91130000      10.69630000       6.03955000       79    -151.75002404    -104.73399127      69.27137503 
Au     10.55410000      10.11770000       8.55685000       79     -23.10307923     159.46532029     113.28222048 
Au     11.73950000      12.59300000       8.12994000       79    -169.43977120      49.47929925     -87.39430761 
Au      9.15711000       8.55484000       6.78770000       79    -137.50221680    -117.06445244     -78.64385845 
Au     10.22930000      14.77570000       8.69053000       79     -20.72624216     -56.41737584     187.57213202 
Au      6.61521000      12.56410000       6.79528000       79     -40.01356792      38.20466262     189.03735149 
Au      8.34999000       7.07187000      11.54680000       79     -27.39690841    -120.72103419    -153.20458034 
Au      8.27427000       5.27519000       8.93856000       79      83.25121934     -43.89389903     173.02705635 
Au      8.75112000       9.74471000      10.76810000       79      40.68937908       1.95309440     192.70797071 
Au      6.50065000      12.66460000       9.70891000       79    -190.28615004      50.82099362      -2.05178781 
Au      6.93027000       9.20497000      12.81080000       79     -77.09881682     151.44613900     -99.57731443 
Au     10.17730000      12.72130000      12.70140000       79    -184.97861756      15.06483561      65.96790050 
Au      7.43603000       7.97673000       8.99747000       79    -185.39199825     -49.53057631      44.41093464 
Au      5.98657000      10.09860000      10.43160000       79     -94.79954975    -103.34788003     138.30424137 
Au      5.68098000       5.88268000       8.85504000       79      48.30514200    -154.99299877    -111.53289071 
Au      7.25004000       6.54900000       6.69366000       79     177.91770309      19.75239597      82.16407916 
Au      4.78786000       8.37131000       8.58569000       79      34.69937995     -83.54823154    -174.96127617 
Au      9.33845000      12.35510000       9.72378000       79    -126.70049730    -136.31582175     -64.50413047 
Au      5.00930000      10.97610000       8.09192000       79     184.74385145      33.49243381      59.52955863 
Au      7.76035000      10.64480000       8.20831000       79      97.86646546      57.10919101    -161.11020254 
Au      8.67719000      14.39960000      11.01260000       79    -106.32588263    -164.80991397      18.11908000 
Au      6.24019000       9.13777000       6.49541000       79      17.16526119      39.28397521    -192.24444133 
Au      7.75338000      14.42310000       8.37672000       79      27.10771149    -120.85276946     153.15215380 
Au     10.05760000       6.03163000       6.95115000       79     151.51443541      52.94309421    -114.17620925 
Au      5.55396000       7.46010000      11.03900000       79    -112.14303049     -85.14884537    -137.72950652 
Au      7.68849000      11.90100000      12.01390000       79       0.00000000       0.00000000       0.00000000 
Au     13.01660000      12.51440000      12.51450000       79     141.24982916    -135.21315355     -23.70002092 
Au     11.33950000      10.92480000      11.12100000       79    -113.38124824     -35.80991259     157.02912096 
Au     13.27310000      10.41540000       7.62131000       79    -187.89491570      42.89289767     -40.63867747 
Au     11.57760000      13.76270000      10.67520000       79    -120.33103849      43.52953237    -149.73784795 
Au     13.96260000       9.92280000      11.89370000       79      87.33662243      11.93309590     176.14118691 
Au     15.19790000       9.76184000       9.55610000       79    -187.92488076      24.13772106      53.82761129 
Au     13.59340000      11.85410000       9.94464000       79     189.67432231      53.05822796       2.06833839 
Au     12.06810000      10.39990000      13.73010000       79    -181.92553307     -40.03687940      63.99961584 
Au      8.28068000       5.01077000      13.48780000       79    -104.74888959    -146.26115101     -80.19443844 
Au     14.54840000       7.30960000      10.58570000       79     -88.06468641     145.53642331      99.29533031 
Au     10.80690000       8.33178000      12.03890000       79     181.02621285     -64.86353900     -42.63840628 
Au      8.69751000       7.62295000      14.20540000       79    -183.20878243     -53.28060481     -48.90318306 
Au     13.15990000       7.64248000      12.98430000       79     -78.02775271     172.39192271      54.66714656 
Au     10.78090000       5.98010000      13.40570000       79     -60.63831417    -149.63975617    -112.81285542 
Au      6.29141000       6.62338000      13.41100000       79    -195.23485644     -15.27185958      21.11689507 
Au      9.65540000       4.72308000      11.24660000       79      83.25121934     -43.89389903     173.02705635 
Au     10.22330000       7.26592000       9.34408000       79     -86.63300233     164.05820592     -66.14703395 
Au     10.87180000       4.51309000       8.95884000       79     -57.31924393      89.15053355    -166.01954333 
Au     12.77000000       6.17937000       8.45152000       79      97.67285602     -32.22122519    -167.98097501 
Au     12.59020000       8.74409000       9.78108000       79      55.26487536     106.99620326    -155.86342792 
Au     11.18420000       8.22723000      14.77340000       79       0.00000000       0.00000000       0.00000000 
Au      6.75345000       4.97611000      11.21510000       79       0.00000000       0.00000000       0.00000000 
Au     12.12830000       6.01057000      11.03210000       79       0.00000000       0.00000000       0.00000000 
Au     14.49790000       8.00521000       7.86074000       79       0.00000000       0.00000000       0.00000000 
Au      9.39105000      10.21570000      13.50170000       79       0.00000000       0.00000000       0.00000000 
