55
Lattice="20.0 0.0 0.0 0.0 20.0 0.0 0.0 0.0 20.0" Properties=species:S:1:pos:R:3:Z:I:1:momenta:R:3 pbc="F F F"
Au      8.95534000       9.87083000      10.16120000       79    -134.26868806      46.32382327     136.46180757 
Au      6.23273000       8.95462000       9.89152000       79     -56.20744304    -171.08208796     -79.79626964 
Au     11.01900000      12.22560000       9.51431000       79      75.19271714    -177.42514054     -40.76980399 
Au      9.93624000      10.88760000       7.32216000       79     142.59166419    -132.05449977      32.01606654 
Au      7.11533000       7.17927000       8.02782000       79     133.85968675    -122.98370256      75.84454687 
Au      9.00243000      13.31060000       6.38970000       79     -30.50138637    -194.58981310       0.52171775 
Au      9.02185000       5.46260000       8.54685000       79     181.48687401     -51.38945107      56.72249115 
Au     10.08570000       6.38207000       6.24039000       79    -170.84631155      88.60440812      41.91179802 
Au      5.51356000      11.44940000       8.99791000       79     179.47922485      21.74973123     -78.16622774 
Au      7.36249000      14.63990000       8.18290000       79     -95.62297460    -151.04147319     -82.69535796 
Au      6.59457000      12.43030000       6.84797000       79    -143.77093326    -131.67511955     -28.06035933 
Au      9.70035000       8.15673000       8.09185000       79     118.78235336     135.54389249     -79.46324849 
Au      7.34400000       9.90921000       7.67883000       79    -175.27063739     -82.42890742      35.79777946 
Au      8.21577000      12.31900000       9.11034000       79    -167.41674077     -84.41096435      60.35085857 
Au     10.44240000       9.04699000       5.33718000       79    -112.58387520    -159.34484508     -27.01654147 
Au     10.07810000      14.59920000       8.55111000       79     151.19931215    -114.94641641     -52.17174985 
Au     11.56590000       5.97097000       8.61803000       79    -112.51032369      47.96332591     154.39154301 
Au     12.36290000       7.84153000       6.82254000       79      62.18854368    -168.75228926      80.31844138 
Au     11.68840000      13.09850000       6.87328000       79      86.62557130      63.12603516     165.24804448 
Au     12.72480000      14.35100000       9.04449000       79      -2.97842588     -13.03257073     196.51229784 
Au     12.01190000       9.70129000       8.78247000       79      78.71843880     107.56058107     145.01700216 
Au      6.10925000      13.65510000      10.31560000       79     100.13559833     163.39016342      45.52272584 
Au      8.07321000       8.10213000       5.77710000       79     100.74271588      99.25981664     137.09192580 
Au     12.56270000      10.57620000       6.17300000       79      68.74699082    -182.56140665      27.22106126 
Au     13.65690000      11.93390000       8.36443000       79     -83.43436980      55.04411298    -169.71933798 
Au      8.17554000      10.81280000       5.25196000       79     -63.60791164    -185.51255085     -18.30107038 
Au     10.58330000      11.74810000       4.78938000       79     -23.41262193    -131.97149966     144.33008880 
Au     14.48650000       9.44515000       7.62629000       79     136.75080064     -21.20010188     140.16267808 
Au     14.01710000      10.84030000      12.90410000       79     188.57339230      13.90445076     -55.15926113 
Au      9.66885000       9.19893000      12.80860000       79     -18.62519689    -147.36333891    -129.35590635 
Au     12.17870000       9.37776000      14.06960000       79     -88.51916199     -11.76880448    -175.56097324 
Au     13.67970000       7.57328000       9.32453000       79      16.41405074      50.51350081    -189.67015394 
Au     13.52830000       8.23262000      11.98260000       79      44.52393520    -158.06876048    -108.75517586 
Au     11.02730000       7.82250000      10.62810000       79     -57.39126299      84.04858356     168.63534818 
Au     14.37110000      10.13930000      10.27660000       79     -19.54017702     -66.34558612    -184.42409497 
Au     11.51630000       6.77520000      13.10490000       79      97.57575701     164.27031029      47.85435114 
Au     11.77220000      10.40620000      11.47610000       79    -148.37116033     -78.23482359    -103.25266720 
Au     13.38870000      12.61960000      11.06000000       79     175.63030557     -77.03402669      44.89495093 
Au     10.18670000       5.31022000      11.04450000       79    -188.92004031     -43.01801800      35.41850672 
Au     12.81470000       5.72788000      11.02540000       79     -22.73501077    -181.08262248     -74.08107210 
Au      8.26612000       7.17638000      10.51170000       79    -128.71109894      95.73024568    -114.30212243 
Au      7.94770000       8.52128000      14.92520000       79      35.23630625      83.13043964     175.05294870 
Au      8.84553000       6.63964000      13.12930000       79     -12.92005462    -196.50635438      -3.75859014 
Au      7.01670000       8.66824000      12.42550000       79      24.26374867     169.83286870     -96.76708807 
Au      7.60485000      10.93520000      13.89640000       79     182.42877417      69.62811012     -25.83545544 
Au      6.75228000      11.22420000      11.35180000       79     -68.57996662     167.66084458      77.34617958 
Au     10.00310000      10.43950000      15.18530000       79    -108.75708434     105.05975513    -126.21468449 
Au      9.65230000      14.68980000      13.20100000       79      97.47829037      15.23740199    -170.47465093 
Au      9.19223000      12.84400000      14.75020000       79     -84.18031229    -177.13488394     -18.24034093 
Au     11.60040000      12.24070000      13.47500000       79    -116.75528614     -27.31702743     156.26191248 
Au     11.26830000      14.23190000      11.29220000       79     162.05332351      -9.84909076    -111.52362024 
Au      7.23853000      13.49400000      12.85790000       79     -90.11661204    -148.26331173     -93.23512616 
Au      8.56284000      14.58260000      10.74470000       79     167.21176944      21.81899205     101.78387824 
Au      9.38939000      12.09850000      11.95510000       79     -81.57326342     173.30353087     -45.90741778 
Au     10.33770000       7.75643000      15.21060000       79    -125.46082952     -77.77130987     130.41091112 
