55
Lattice="20.0 0.0 0.0 0.0 20.0 0.0 0.0 0.0 20.0" Properties=species:S:1:pos:R:3:momenta:R:3:Z:I:1 pbc="F F F"
Au     10.44790000      13.44780000      12.66260000     -30.41609505     133.46243089     141.62783210       79 
Au     14.59440000       9.38481000       7.16564000      60.63046631      58.20647866     178.13409140       79 
Au     14.97110000      11.90540000       7.75319000      96.25074788     -15.16764506     171.17692075       79 
Au     12.82960000      10.60540000       8.81352000    -150.46742133      45.20029072    -118.79516387       79 
Au      9.40291000      11.78390000      14.34370000     -57.53402449      57.36736692    -179.42860241       79 
Au     11.78920000      14.12190000      10.39620000     116.22148613     -36.93653471     154.67404659       79 
Au     14.15560000      12.70250000      10.21280000    -154.94929044     -94.05733333     -77.06969287       79 
Au     11.88000000      11.44190000      11.29040000      67.76891923     151.12387007     106.60558898       79 
Au     15.28050000      10.20840000       9.92186000     -80.22400455     153.46361357     -93.85537025       79 
Au     13.17410000      13.39470000      12.64210000     109.41740697    -147.03325273      72.14468634       79 
Au     12.00620000      11.41580000      14.05740000    -136.58299325     141.91282681      -1.27971282       79 
Au     14.30620000      10.91370000      12.37870000     -47.97464300    -124.89773838     144.55030508       79 
Au     12.91170000       8.70165000      10.97710000      18.22777739    -193.82109136      29.94886974       79 
Au     10.54200000       6.83021000      11.58570000      38.71944265     -21.07317002    -191.97012369       79 
Au     14.86680000       7.68824000       9.28348000     134.42169242     -27.89732814    -141.23862719       79 
Au     10.45380000       9.14398000       9.85992000     -88.62830151    -158.79998459     -75.65309768       79 
Au     11.24370000       7.12272000      14.32430000     -47.17298160     -55.82310534    -182.90514711       79 
Au     15.27560000       8.35544000      12.05820000     111.03729980    -129.38408392     -98.62189921       79 
Au     10.60620000       9.34922000      12.68690000    -166.91829840     -87.28690932      57.57672483       79 
Au     13.17430000       6.54054000      12.66940000      41.02485016    -117.22048599    -152.87943438       79 
Au     12.71800000       6.08179000      10.05370000    -121.37338738     129.26099334      85.76653519       79 
Au      8.81416000       7.49114000      13.67890000    -112.85226859     160.74652488     -14.85672691       79 
Au     12.42920000       7.90672000       8.04689000    -142.62261673     135.84279539       1.15163370       79 
Au      7.85767000       9.91622000      13.59910000     -57.31048541     147.32863701     117.49716209       79 
Au     10.24520000       9.40759000      15.22290000    -126.00627890    -147.77452904     -32.87717091       79 
Au     13.10610000       8.97644000      13.83590000     -33.75548822     157.14226135     113.85376074       79 
Au      7.68091000       6.30554000       9.57225000      84.59420882     -47.32773596     171.46342865       79 
Au      9.07135000      11.27020000      11.42240000      70.27226896    -183.56691066     -12.68068015       79 
Au      4.89753000      10.89810000       9.29292000    -137.77789008     -44.15045991    -133.65549751       79 
Au      6.51720000      12.95930000      10.10040000    -121.38022677     -61.88553045    -142.24213087       79 
Au      5.99612000       8.50598000       9.60626000     -28.87116310     -58.71056439     185.78301239       79 
Au      7.72436000      10.81790000       9.04936000      86.36145628     149.11596285     -95.40403877       79 
Au      7.53818000      12.86890000      12.67230000     -70.14937147    -167.94747100     -75.28953972       79 
Au      6.33323000      10.61690000      11.50900000     120.44862865     -34.00467863    -152.09080120       79 
Au      8.17608000       8.45812000      11.20050000     111.77008784     -89.65519127    -135.14879305       79 
Au     12.66490000      13.28700000       7.91215000    -100.00940155     158.54108743      60.48673673       79 
Au     10.61250000       9.95788000       7.23801000      64.20038097     178.51256290     -52.98469679       79 
Au     10.38180000       7.44249000       6.14573000     -97.22513105    -131.33126817    -109.97806152       79 
Au     12.81570000      11.29330000       6.07813000    -109.25933233    -158.93806810      39.96111771       79 
Au     10.42850000      14.69460000       8.15916000    -108.94617269     -95.42526512    -133.49364163       79 
Au      5.98417000       9.62443000       7.08419000      -3.93308069     -81.28337335    -179.36930121       79 
Au     10.35000000      12.08110000       9.00611000      -9.12312180     -85.15520819     177.37294407       79 
Au     10.20980000       9.96445000       4.74873000    -117.42117704     -70.09250640    -141.75722151       79 
Au      8.19164000      11.02150000       6.28956000     -32.73933039     188.17244901      48.11515148       79 
Au      8.20197000      13.38450000       7.84193000    -176.71127066     -69.53237041      52.28937186       79 
Au      5.92736000      12.26980000       7.41000000    -105.38364166    -158.11811406      51.85317926       79 
Au      8.41072000       5.90338000       6.94859000    -112.63574613     -93.06484184    -132.09059781       79 
Au      8.97084000      13.96960000      10.46120000    -157.76103073      87.01492610     -79.59687144       79 
Au     10.44050000      12.58710000       6.29318000     161.66248308     -68.45212347      89.30481778       79 
Au      8.42678000       8.40799000       8.09758000     167.61163434     -57.64181658      85.90438369       79 
Au     10.26200000       6.45908000       8.86365000     111.41610984    -162.03143259      11.31668877       79 
Au     12.54480000       8.80748000       5.47354000       0.00000000       0.00000000       0.00000000       79 
Au      6.18098000       7.01536000       7.35893000       0.00000000       0.00000000       0.00000000       79 
Au     15.11920000       5.95380000      11.12470000       0.00000000       0.00000000       0.00000000       79 
Au      7.95801000       8.37867000       5.51287000       0.00000000       0.00000000       0.00000000       79 
