55
Lattice="20.0 0.0 0.0 0.0 20.0 0.0 0.0 0.0 20.0" Properties=species:S:1:pos:R:3:momenta:R:3:Z:I:1 pbc="F F F"
Au      7.76949000      12.44610000      13.08830000     -27.29001024    -104.78674503     164.53205016       79 
Au      9.68671000      13.66450000       7.86907000      26.60035752     135.93637481     140.03401410       79 
Au     12.09000000      13.95890000      14.09080000     -30.41609505     133.46243089     141.62783210       79 
Au     14.74530000       8.83587000       8.14901000      60.63046631      58.20647866     178.13409140       79 
Au     12.64450000       9.41215000       6.65742000    -126.02012489     144.96561553      43.58555448       79 
Au     14.01050000      11.43790000       7.91110000      96.25074788     -15.16764506     171.17692075       79 
Au      8.38712000      13.62840000      10.39950000     167.61979588    -101.33206264      20.76581890       79 
Au      9.28087000      10.80230000      11.81430000    -149.61269857     118.21374599      49.36955345       79 
Au     12.36630000      10.13420000       9.46405000    -150.46742133      45.20029072    -118.79516387       79 
Au     10.28060000      11.97320000      14.45520000     -57.53402449      57.36736692    -179.42860241       79 
Au     12.53430000      13.65130000       8.53089000      79.87532948       5.19005779    -179.96887832       79 
Au     11.16140000      11.50940000       7.28216000      74.53611811    -155.77905635     -94.72620979       79 
Au     12.58670000      14.33740000      11.38880000     116.22148613     -36.93653471     154.67404659       79 
Au     14.00320000      12.25100000      10.48720000    -154.94929044     -94.05733333     -77.06969287       79 
Au     10.08440000      13.75440000      12.40320000     -76.83291477      95.62036259     154.10792188       79 
Au     10.05690000       9.41517000       5.64000000     -31.18668846     172.21395781      90.36340698       79 
Au      6.60398000      11.72610000      10.66960000     -66.22685704     182.95257009      30.62944053       79 
Au     12.14830000      11.57000000      12.42540000      67.76891923     151.12387007     106.60558898       79 
Au     10.59180000      15.09110000       9.89565000    -169.62261181     -99.33155393     -12.53850389       79 
Au      7.08071000      13.07320000       8.13060000       3.22707955    -110.59180594    -162.95656028       79 
Au      6.03707000      10.67480000       8.27987000      82.10162692     134.23386194    -118.47529400       79 
Au     15.16770000       9.81814000      10.41540000     -80.22400455     153.46361357     -93.85537025       79 
Au     14.32490000      13.28380000      13.09280000     109.41740697    -147.03325273      72.14468634       79 
Au     12.99500000      11.60890000      14.97100000    -136.58299325     141.91282681      -1.27971282       79 
Au     14.80160000      10.77830000      12.90040000     -47.97464300    -124.89773838     144.55030508       79 
Au      8.83823000      11.16900000       8.93096000      -5.76068252    -161.31729993    -112.86870869       79 
Au     10.94680000      12.39350000      10.11950000     124.37095080    -116.40927513      98.87643492       79 
Au     12.97760000       8.82219000      11.75340000      18.22777739    -193.82109136      29.94886974       79 
Au     10.62130000       6.48270000      13.19500000      38.71944265     -21.07317002    -191.97012369       79 
Au      7.81707000       6.70196000       8.70705000      84.59420882     -47.32773596     171.46342865       79 
Au      8.36573000       7.99693000      12.78360000     -97.28793516      28.69308947    -168.84183845       79 
Au      8.97230000       6.03626000      11.01140000    -156.67835324    -106.70357547     -53.49806288       79 
Au     14.59680000       7.09201000      10.52780000     134.42169242     -27.89732814    -141.23862719       79 
Au     10.41900000       8.27921000      10.81410000     -88.62830151    -158.79998459     -75.65309768       79 
Au      5.58151000       8.01768000       8.56675000     -28.87116310     -58.71056439     185.78301239       79 
Au      7.74344000       9.05134000      10.10420000      86.36145628     149.11596285     -95.40403877       79 
Au     11.89360000       7.26761000      15.41310000     -47.17298160     -55.82310534    -182.90514711       79 
Au     15.47190000       8.21519000      12.71830000     111.03729980    -129.38408392     -98.62189921       79 
Au     10.90780000       9.22494000      13.50130000    -166.91829840     -87.28690932      57.57672483       79 
Au      5.02555000       9.48964000      10.56660000     120.44862865     -34.00467863    -152.09080120       79 
Au     13.37400000       6.61451000      13.20250000      41.02485016    -117.22048599    -152.87943438       79 
Au     11.98210000       6.03733000      10.95770000    -121.37338738     129.26099334      85.76653519       79 
Au      6.33730000       7.14531000      11.09500000     111.77008784     -89.65519127    -135.14879305       79 
Au      9.39033000       7.81166000      15.32800000    -112.85226859     160.74652488     -14.85672691       79 
Au      6.58774000       9.93144000      12.62770000     -22.55151596    -165.48492027    -104.41251082       79 
Au     11.52120000       7.09351000       6.34183000     -97.22513105    -131.33126817    -109.97806152       79 
Au      7.65374000       9.04300000       7.05177000      -3.93308069     -81.28337335    -179.36930121       79 
Au      9.02871000       6.91191000       6.34296000    -112.63574613     -93.06484184    -132.09059781       79 
Au     10.15130000       8.77337000       8.16619000     167.61163434     -57.64181658      85.90438369       79 
Au     12.62020000       7.47696000       8.79286000    -142.62261673     135.84279539       1.15163370       79 
Au     10.37550000       6.02815000       8.66235000     111.41610984    -162.03143259      11.31668877       79 
Au      8.44093000      10.14980000      14.56790000     -57.31048541     147.32863701     117.49716209       79 
Au     11.12310000       9.83481000      15.99920000    -126.00627890    -147.77452904     -32.87717091       79 
Au     13.54790000       9.04835000      14.54190000     -33.75548822     157.14226135     113.85376074       79 
Au      8.48713000      11.54480000       6.38016000       0.00000000       0.00000000       0.00000000       79 
