561
Lattice="40.0 0.0 0.0 0.0 40.0 0.0 0.0 0.0 40.0" Properties=species:S:1:pos:R:3:Z:I:1 pbc="T T T"
Pt     16.11600000      12.26100000      12.26100000       78 
Pt     18.08600000      10.44800000      12.34100000       78 
Pt     18.08600000      12.34100000      10.44800000       78 
Pt     20.00000000      10.58600000      10.58600000       78 
Pt     21.91400000      10.44800000      12.34100000       78 
Pt     21.91400000      12.34100000      10.44800000       78 
Pt     20.00000000      12.35800000      12.35800000       78 
Pt     23.88400000      12.26100000      12.26100000       78 
Pt     12.26100000      16.11600000      12.26100000       78 
Pt     14.18000000      14.18000000      12.24700000       78 
Pt     14.23600000      16.15800000      10.42800000       78 
Pt     16.15800000      14.23600000      10.42800000       78 
Pt     16.13900000      16.13900000      12.25300000       78 
Pt     18.06200000      14.22100000      12.27100000       78 
Pt     18.05200000      16.11400000      10.29000000       78 
Pt     20.00000000      14.18000000      10.31900000       78 
Pt     21.93800000      14.22100000      12.27100000       78 
Pt     21.94800000      16.11400000      10.29000000       78 
Pt     20.00000000      16.14100000      12.18200000       78 
Pt     23.84200000      14.23600000      10.42800000       78 
Pt     25.82000000      14.18000000      12.24700000       78 
Pt     25.76400000      16.15800000      10.42800000       78 
Pt     23.86100000      16.13900000      12.25300000       78 
Pt     27.73900000      16.11600000      12.26100000       78 
Pt     10.44800000      18.08600000      12.34100000       78 
Pt     10.58600000      20.00000000      10.58600000       78 
Pt     10.44800000      21.91400000      12.34100000       78 
Pt     12.34100000      18.08600000      10.44800000       78 
Pt     12.34100000      21.91400000      10.44800000       78 
Pt     12.35800000      20.00000000      12.35800000       78 
Pt     14.22100000      18.06200000      12.27100000       78 
Pt     14.18000000      20.00000000      10.31900000       78 
Pt     14.22100000      21.93800000      12.27100000       78 
Pt     16.11400000      18.05200000      10.29000000       78 
Pt     16.11400000      21.94800000      10.29000000       78 
Pt     16.14100000      20.00000000      12.18200000       78 
Pt     18.06900000      18.06900000      12.16200000       78 
Pt     18.05600000      20.00000000      10.24900000       78 
Pt     18.06900000      21.93100000      12.16200000       78 
Pt     20.00000000      18.05600000      10.24900000       78 
Pt     21.93100000      18.06900000      12.16200000       78 
Pt     20.00000000      21.94400000      10.24900000       78 
Pt     21.94400000      20.00000000      10.24900000       78 
Pt     20.00000000      20.00000000      12.14100000       78 
Pt     21.93100000      21.93100000      12.16200000       78 
Pt     23.88600000      18.05200000      10.29000000       78 
Pt     25.77900000      18.06200000      12.27100000       78 
Pt     23.88600000      21.94800000      10.29000000       78 
Pt     25.82000000      20.00000000      10.31900000       78 
Pt     23.85900000      20.00000000      12.18200000       78 
Pt     25.77900000      21.93800000      12.27100000       78 
Pt     27.65900000      18.08600000      10.44800000       78 
Pt     29.55200000      18.08600000      12.34100000       78 
Pt     27.65900000      21.91400000      10.44800000       78 
Pt     29.41400000      20.00000000      10.58600000       78 
Pt     27.64200000      20.00000000      12.35800000       78 
Pt     29.55200000      21.91400000      12.34100000       78 
Pt     12.26100000      23.88400000      12.26100000       78 
Pt     14.23600000      23.84200000      10.42800000       78 
Pt     14.18000000      25.82000000      12.24700000       78 
Pt     16.15800000      25.76400000      10.42800000       78 
Pt     16.13900000      23.86100000      12.25300000       78 
Pt     18.05200000      23.88600000      10.29000000       78 
Pt     18.06200000      25.77900000      12.27100000       78 
Pt     20.00000000      25.82000000      10.31900000       78 
Pt     21.94800000      23.88600000      10.29000000       78 
Pt     20.00000000      23.85900000      12.18200000       78 
Pt     21.93800000      25.77900000      12.27100000       78 
Pt     23.84200000      25.76400000      10.42800000       78 
Pt     25.76400000      23.84200000      10.42800000       78 
Pt     23.86100000      23.86100000      12.25300000       78 
Pt     25.82000000      25.82000000      12.24700000       78 
Pt     27.73900000      23.88400000      12.26100000       78 
Pt     16.11600000      27.73900000      12.26100000       78 
Pt     18.08600000      27.65900000      10.44800000       78 
Pt     18.08600000      29.55200000      12.34100000       78 
Pt     20.00000000      29.41400000      10.58600000       78 
Pt     21.91400000      27.65900000      10.44800000       78 
Pt     20.00000000      27.64200000      12.35800000       78 
Pt     21.91400000      29.55200000      12.34100000       78 
Pt     23.88400000      27.73900000      12.26100000       78 
Pt     12.26100000      12.26100000      16.11600000       78 
Pt     14.23600000      10.42800000      16.15800000       78 
Pt     14.18000000      12.24700000      14.18000000       78 
Pt     16.15800000      10.42800000      14.23600000       78 
Pt     16.13900000      12.25300000      16.13900000       78 
Pt     18.05200000      10.29000000      16.11400000       78 
Pt     18.06200000      12.27100000      14.22100000       78 
Pt     20.00000000      10.31900000      14.18000000       78 
Pt     21.94800000      10.29000000      16.11400000       78 
Pt     21.93800000      12.27100000      14.22100000       78 
Pt     20.00000000      12.18200000      16.14100000       78 
Pt     23.84200000      10.42800000      14.23600000       78 
Pt     25.76400000      10.42800000      16.15800000       78 
Pt     25.82000000      12.24700000      14.18000000       78 
Pt     23.86100000      12.25300000      16.13900000       78 
Pt     27.73900000      12.26100000      16.11600000       78 
Pt     10.42800000      14.23600000      16.15800000       78 
Pt     10.42800000      16.15800000      14.23600000       78 
Pt     12.24700000      14.18000000      14.18000000       78 
Pt     12.25300000      16.13900000      16.13900000       78 
Pt     14.16800000      14.16800000      16.10300000       78 
Pt     14.16800000      16.10300000      14.16800000       78 
Pt     16.10300000      14.16800000      14.16800000       78 
Pt     16.11400000      16.11400000      16.11400000       78 
Pt     18.06500000      14.16500000      16.13800000       78 
Pt     18.06500000      16.13800000      14.16500000       78 
Pt     20.00000000      14.21300000      14.21300000       78 
Pt     21.93500000      14.16500000      16.13800000       78 
Pt     21.93500000      16.13800000      14.16500000       78 
Pt     20.00000000      16.12800000      16.12800000       78 
Pt     23.89700000      14.16800000      14.16800000       78 
Pt     25.83200000      14.16800000      16.10300000       78 
Pt     25.83200000      16.10300000      14.16800000       78 
Pt     23.88600000      16.11400000      16.11400000       78 
Pt     27.75300000      14.18000000      14.18000000       78 
Pt     29.57200000      14.23600000      16.15800000       78 
Pt     29.57200000      16.15800000      14.23600000       78 
Pt     27.74700000      16.13900000      16.13900000       78 
Pt     10.29000000      18.05200000      16.11400000       78 
Pt     10.31900000      20.00000000      14.18000000       78 
Pt     10.29000000      21.94800000      16.11400000       78 
Pt     12.27100000      18.06200000      14.22100000       78 
Pt     12.27100000      21.93800000      14.22100000       78 
Pt     12.18200000      20.00000000      16.14100000       78 
Pt     14.16500000      18.06500000      16.13800000       78 
Pt     14.21300000      20.00000000      14.21300000       78 
Pt     14.16500000      21.93500000      16.13800000       78 
Pt     16.13800000      18.06500000      14.16500000       78 
Pt     16.13800000      21.93500000      14.16500000       78 
Pt     16.12800000      20.00000000      16.12800000       78 
Pt     18.06400000      18.06400000      16.11100000       78 
Pt     18.07000000      20.00000000      14.12300000       78 
Pt     18.06400000      21.93600000      16.11100000       78 
Pt     20.00000000      18.07000000      14.12300000       78 
Pt     21.93600000      18.06400000      16.11100000       78 
Pt     20.00000000      21.93000000      14.12300000       78 
Pt     21.93000000      20.00000000      14.12300000       78 
Pt     20.00000000      20.00000000      16.09500000       78 
Pt     21.93600000      21.93600000      16.11100000       78 
Pt     23.86200000      18.06500000      14.16500000       78 
Pt     25.83500000      18.06500000      16.13800000       78 
Pt     23.86200000      21.93500000      14.16500000       78 
Pt     25.78700000      20.00000000      14.21300000       78 
Pt     23.87200000      20.00000000      16.12800000       78 
Pt     25.83500000      21.93500000      16.13800000       78 
Pt     27.72900000      18.06200000      14.22100000       78 
Pt     29.71000000      18.05200000      16.11400000       78 
Pt     27.72900000      21.93800000      14.22100000       78 
Pt     29.68100000      20.00000000      14.18000000       78 
Pt     27.81800000      20.00000000      16.14100000       78 
Pt     29.71000000      21.94800000      16.11400000       78 
Pt     10.42800000      23.84200000      14.23600000       78 
Pt     10.42800000      25.76400000      16.15800000       78 
Pt     12.24700000      25.82000000      14.18000000       78 
Pt     12.25300000      23.86100000      16.13900000       78 
Pt     14.16800000      23.89700000      14.16800000       78 
Pt     14.16800000      25.83200000      16.10300000       78 
Pt     16.10300000      25.83200000      14.16800000       78 
Pt     16.11400000      23.88600000      16.11400000       78 
Pt     18.06500000      23.86200000      14.16500000       78 
Pt     18.06500000      25.83500000      16.13800000       78 
Pt     20.00000000      25.78700000      14.21300000       78 
Pt     21.93500000      23.86200000      14.16500000       78 
Pt     20.00000000      23.87200000      16.12800000       78 
Pt     21.93500000      25.83500000      16.13800000       78 
Pt     23.89700000      25.83200000      14.16800000       78 
Pt     25.83200000      23.89700000      14.16800000       78 
Pt     23.88600000      23.88600000      16.11400000       78 
Pt     25.83200000      25.83200000      16.10300000       78 
Pt     27.75300000      25.82000000      14.18000000       78 
Pt     29.57200000      23.84200000      14.23600000       78 
Pt     27.74700000      23.86100000      16.13900000       78 
Pt     29.57200000      25.76400000      16.15800000       78 
Pt     12.26100000      27.73900000      16.11600000       78 
Pt     14.18000000      27.75300000      14.18000000       78 
Pt     14.23600000      29.57200000      16.15800000       78 
Pt     16.15800000      29.57200000      14.23600000       78 
Pt     16.13900000      27.74700000      16.13900000       78 
Pt     18.06200000      27.72900000      14.22100000       78 
Pt     18.05200000      29.71000000      16.11400000       78 
Pt     20.00000000      29.68100000      14.18000000       78 
Pt     21.93800000      27.72900000      14.22100000       78 
Pt     20.00000000      27.81800000      16.14100000       78 
Pt     21.94800000      29.71000000      16.11400000       78 
Pt     23.84200000      29.57200000      14.23600000       78 
Pt     25.82000000      27.75300000      14.18000000       78 
Pt     23.86100000      27.74700000      16.13900000       78 
Pt     25.76400000      29.57200000      16.15800000       78 
Pt     27.73900000      27.73900000      16.11600000       78 
Pt     10.58600000      10.58600000      20.00000000       78 
Pt     10.44800000      12.34100000      18.08600000       78 
Pt     10.44800000      12.34100000      21.91400000       78 
Pt     12.34100000      10.44800000      18.08600000       78 
Pt     12.34100000      10.44800000      21.91400000       78 
Pt     12.35800000      12.35800000      20.00000000       78 
Pt     14.18000000      10.31900000      20.00000000       78 
Pt     14.22100000      12.27100000      18.06200000       78 
Pt     14.22100000      12.27100000      21.93800000       78 
Pt     16.11400000      10.29000000      18.05200000       78 
Pt     16.11400000      10.29000000      21.94800000       78 
Pt     16.14100000      12.18200000      20.00000000       78 
Pt     18.05600000      10.24900000      20.00000000       78 
Pt     18.06900000      12.16200000      18.06900000       78 
Pt     18.06900000      12.16200000      21.93100000       78 
Pt     20.00000000      10.24900000      18.05600000       78 
Pt     20.00000000      10.24900000      21.94400000       78 
Pt     21.94400000      10.24900000      20.00000000       78 
Pt     21.93100000      12.16200000      18.06900000       78 
Pt     20.00000000      12.14100000      20.00000000       78 
Pt     21.93100000      12.16200000      21.93100000       78 
Pt     23.88600000      10.29000000      18.05200000       78 
Pt     23.88600000      10.29000000      21.94800000       78 
Pt     25.82000000      10.31900000      20.00000000       78 
Pt     25.77900000      12.27100000      18.06200000       78 
Pt     23.85900000      12.18200000      20.00000000       78 
Pt     25.77900000      12.27100000      21.93800000       78 
Pt     27.65900000      10.44800000      18.08600000       78 
Pt     27.65900000      10.44800000      21.91400000       78 
Pt     29.41400000      10.58600000      20.00000000       78 
Pt     29.55200000      12.34100000      18.08600000       78 
Pt     27.64200000      12.35800000      20.00000000       78 
Pt     29.55200000      12.34100000      21.91400000       78 
Pt     10.31900000      14.18000000      20.00000000       78 
Pt     10.29000000      16.11400000      18.05200000       78 
Pt     10.29000000      16.11400000      21.94800000       78 
Pt     12.27100000      14.22100000      18.06200000       78 
Pt     12.27100000      14.22100000      21.93800000       78 
Pt     12.18200000      16.14100000      20.00000000       78 
Pt     14.21300000      14.21300000      20.00000000       78 
Pt     14.16500000      16.13800000      18.06500000       78 
Pt     14.16500000      16.13800000      21.93500000       78 
Pt     16.13800000      14.16500000      18.06500000       78 
Pt     16.13800000      14.16500000      21.93500000       78 
Pt     16.12800000      16.12800000      20.00000000       78 
Pt     18.07000000      14.12300000      20.00000000       78 
Pt     18.06400000      16.11100000      18.06400000       78 
Pt     18.06400000      16.11100000      21.93600000       78 
Pt     20.00000000      14.12300000      18.07000000       78 
Pt     20.00000000      14.12300000      21.93000000       78 
Pt     21.93000000      14.12300000      20.00000000       78 
Pt     21.93600000      16.11100000      18.06400000       78 
Pt     20.00000000      16.09500000      20.00000000       78 
Pt     21.93600000      16.11100000      21.93600000       78 
Pt     23.86200000      14.16500000      18.06500000       78 
Pt     23.86200000      14.16500000      21.93500000       78 
Pt     25.78700000      14.21300000      20.00000000       78 
Pt     25.83500000      16.13800000      18.06500000       78 
Pt     23.87200000      16.12800000      20.00000000       78 
Pt     25.83500000      16.13800000      21.93500000       78 
Pt     27.72900000      14.22100000      18.06200000       78 
Pt     27.72900000      14.22100000      21.93800000       78 
Pt     29.68100000      14.18000000      20.00000000       78 
Pt     29.71000000      16.11400000      18.05200000       78 
Pt     27.81800000      16.14100000      20.00000000       78 
Pt     29.71000000      16.11400000      21.94800000       78 
Pt     10.24900000      18.05600000      20.00000000       78 
Pt     10.24900000      20.00000000      18.05600000       78 
Pt     10.24900000      20.00000000      21.94400000       78 
Pt     10.24900000      21.94400000      20.00000000       78 
Pt     12.16200000      18.06900000      18.06900000       78 
Pt     12.16200000      18.06900000      21.93100000       78 
Pt     12.16200000      21.93100000      18.06900000       78 
Pt     12.14100000      20.00000000      20.00000000       78 
Pt     12.16200000      21.93100000      21.93100000       78 
Pt     14.12300000      18.07000000      20.00000000       78 
Pt     14.12300000      20.00000000      18.07000000       78 
Pt     14.12300000      20.00000000      21.93000000       78 
Pt     14.12300000      21.93000000      20.00000000       78 
Pt     16.11100000      18.06400000      18.06400000       78 
Pt     16.11100000      18.06400000      21.93600000       78 
Pt     16.11100000      21.93600000      18.06400000       78 
Pt     16.09500000      20.00000000      20.00000000       78 
Pt     16.11100000      21.93600000      21.93600000       78 
Pt     18.06000000      18.06000000      20.00000000       78 
Pt     18.06000000      20.00000000      18.06000000       78 
Pt     18.06000000      20.00000000      21.94000000       78 
Pt     18.06000000      21.94000000      20.00000000       78 
Pt     20.00000000      18.06000000      18.06000000       78 
Pt     20.00000000      18.06000000      21.94000000       78 
Pt     21.94000000      18.06000000      20.00000000       78 
Pt     20.00000000      21.94000000      18.06000000       78 
Pt     21.94000000      20.00000000      18.06000000       78 
Pt     20.00000000      20.00000000      20.00000000       78 
Pt     20.00000000      21.94000000      21.94000000       78 
Pt     21.94000000      20.00000000      21.94000000       78 
Pt     21.94000000      21.94000000      20.00000000       78 
Pt     23.88900000      18.06400000      18.06400000       78 
Pt     23.88900000      18.06400000      21.93600000       78 
Pt     25.87700000      18.07000000      20.00000000       78 
Pt     23.88900000      21.93600000      18.06400000       78 
Pt     25.87700000      20.00000000      18.07000000       78 
Pt     23.90500000      20.00000000      20.00000000       78 
Pt     23.88900000      21.93600000      21.93600000       78 
Pt     25.87700000      20.00000000      21.93000000       78 
Pt     25.87700000      21.93000000      20.00000000       78 
Pt     27.83800000      18.06900000      18.06900000       78 
Pt     27.83800000      18.06900000      21.93100000       78 
Pt     29.75100000      18.05600000      20.00000000       78 
Pt     27.83800000      21.93100000      18.06900000       78 
Pt     29.75100000      20.00000000      18.05600000       78 
Pt     27.85900000      20.00000000      20.00000000       78 
Pt     27.83800000      21.93100000      21.93100000       78 
Pt     29.75100000      20.00000000      21.94400000       78 
Pt     29.75100000      21.94400000      20.00000000       78 
Pt     10.29000000      23.88600000      18.05200000       78 
Pt     10.29000000      23.88600000      21.94800000       78 
Pt     10.31900000      25.82000000      20.00000000       78 
Pt     12.27100000      25.77900000      18.06200000       78 
Pt     12.18200000      23.85900000      20.00000000       78 
Pt     12.27100000      25.77900000      21.93800000       78 
Pt     14.16500000      23.86200000      18.06500000       78 
Pt     14.16500000      23.86200000      21.93500000       78 
Pt     14.21300000      25.78700000      20.00000000       78 
Pt     16.13800000      25.83500000      18.06500000       78 
Pt     16.12800000      23.87200000      20.00000000       78 
Pt     16.13800000      25.83500000      21.93500000       78 
Pt     18.06400000      23.88900000      18.06400000       78 
Pt     18.06400000      23.88900000      21.93600000       78 
Pt     18.07000000      25.87700000      20.00000000       78 
Pt     20.00000000      25.87700000      18.07000000       78 
Pt     21.93600000      23.88900000      18.06400000       78 
Pt     20.00000000      23.90500000      20.00000000       78 
Pt     20.00000000      25.87700000      21.93000000       78 
Pt     21.93600000      23.88900000      21.93600000       78 
Pt     21.93000000      25.87700000      20.00000000       78 
Pt     23.86200000      25.83500000      18.06500000       78 
Pt     25.83500000      23.86200000      18.06500000       78 
Pt     23.87200000      23.87200000      20.00000000       78 
Pt     23.86200000      25.83500000      21.93500000       78 
Pt     25.83500000      23.86200000      21.93500000       78 
Pt     25.78700000      25.78700000      20.00000000       78 
Pt     27.72900000      25.77900000      18.06200000       78 
Pt     29.71000000      23.88600000      18.05200000       78 
Pt     27.81800000      23.85900000      20.00000000       78 
Pt     27.72900000      25.77900000      21.93800000       78 
Pt     29.71000000      23.88600000      21.94800000       78 
Pt     29.68100000      25.82000000      20.00000000       78 
Pt     10.44800000      27.65900000      18.08600000       78 
Pt     10.44800000      27.65900000      21.91400000       78 
Pt     10.58600000      29.41400000      20.00000000       78 
Pt     12.34100000      29.55200000      18.08600000       78 
Pt     12.35800000      27.64200000      20.00000000       78 
Pt     12.34100000      29.55200000      21.91400000       78 
Pt     14.22100000      27.72900000      18.06200000       78 
Pt     14.22100000      27.72900000      21.93800000       78 
Pt     14.18000000      29.68100000      20.00000000       78 
Pt     16.11400000      29.71000000      18.05200000       78 
Pt     16.14100000      27.81800000      20.00000000       78 
Pt     16.11400000      29.71000000      21.94800000       78 
Pt     18.06900000      27.83800000      18.06900000       78 
Pt     18.06900000      27.83800000      21.93100000       78 
Pt     18.05600000      29.75100000      20.00000000       78 
Pt     20.00000000      29.75100000      18.05600000       78 
Pt     21.93100000      27.83800000      18.06900000       78 
Pt     20.00000000      27.85900000      20.00000000       78 
Pt     20.00000000      29.75100000      21.94400000       78 
Pt     21.93100000      27.83800000      21.93100000       78 
Pt     21.94400000      29.75100000      20.00000000       78 
Pt     23.88600000      29.71000000      18.05200000       78 
Pt     25.77900000      27.72900000      18.06200000       78 
Pt     23.85900000      27.81800000      20.00000000       78 
Pt     23.88600000      29.71000000      21.94800000       78 
Pt     25.77900000      27.72900000      21.93800000       78 
Pt     25.82000000      29.68100000      20.00000000       78 
Pt     27.65900000      29.55200000      18.08600000       78 
Pt     29.55200000      27.65900000      18.08600000       78 
Pt     27.64200000      27.64200000      20.00000000       78 
Pt     27.65900000      29.55200000      21.91400000       78 
Pt     29.55200000      27.65900000      21.91400000       78 
Pt     29.41400000      29.41400000      20.00000000       78 
Pt     12.26100000      12.26100000      23.88400000       78 
Pt     14.23600000      10.42800000      23.84200000       78 
Pt     14.18000000      12.24700000      25.82000000       78 
Pt     16.15800000      10.42800000      25.76400000       78 
Pt     16.13900000      12.25300000      23.86100000       78 
Pt     18.05200000      10.29000000      23.88600000       78 
Pt     18.06200000      12.27100000      25.77900000       78 
Pt     20.00000000      10.31900000      25.82000000       78 
Pt     21.94800000      10.29000000      23.88600000       78 
Pt     20.00000000      12.18200000      23.85900000       78 
Pt     21.93800000      12.27100000      25.77900000       78 
Pt     23.84200000      10.42800000      25.76400000       78 
Pt     25.76400000      10.42800000      23.84200000       78 
Pt     23.86100000      12.25300000      23.86100000       78 
Pt     25.82000000      12.24700000      25.82000000       78 
Pt     27.73900000      12.26100000      23.88400000       78 
Pt     10.42800000      14.23600000      23.84200000       78 
Pt     10.42800000      16.15800000      25.76400000       78 
Pt     12.24700000      14.18000000      25.82000000       78 
Pt     12.25300000      16.13900000      23.86100000       78 
Pt     14.16800000      14.16800000      23.89700000       78 
Pt     14.16800000      16.10300000      25.83200000       78 
Pt     16.10300000      14.16800000      25.83200000       78 
Pt     16.11400000      16.11400000      23.88600000       78 
Pt     18.06500000      14.16500000      23.86200000       78 
Pt     18.06500000      16.13800000      25.83500000       78 
Pt     20.00000000      14.21300000      25.78700000       78 
Pt     21.93500000      14.16500000      23.86200000       78 
Pt     20.00000000      16.12800000      23.87200000       78 
Pt     21.93500000      16.13800000      25.83500000       78 
Pt     23.89700000      14.16800000      25.83200000       78 
Pt     25.83200000      14.16800000      23.89700000       78 
Pt     23.88600000      16.11400000      23.88600000       78 
Pt     25.83200000      16.10300000      25.83200000       78 
Pt     27.75300000      14.18000000      25.82000000       78 
Pt     29.57200000      14.23600000      23.84200000       78 
Pt     27.74700000      16.13900000      23.86100000       78 
Pt     29.57200000      16.15800000      25.76400000       78 
Pt     10.29000000      18.05200000      23.88600000       78 
Pt     10.31900000      20.00000000      25.82000000       78 
Pt     10.29000000      21.94800000      23.88600000       78 
Pt     12.27100000      18.06200000      25.77900000       78 
Pt     12.18200000      20.00000000      23.85900000       78 
Pt     12.27100000      21.93800000      25.77900000       78 
Pt     14.16500000      18.06500000      23.86200000       78 
Pt     14.21300000      20.00000000      25.78700000       78 
Pt     14.16500000      21.93500000      23.86200000       78 
Pt     16.13800000      18.06500000      25.83500000       78 
Pt     16.12800000      20.00000000      23.87200000       78 
Pt     16.13800000      21.93500000      25.83500000       78 
Pt     18.06400000      18.06400000      23.88900000       78 
Pt     18.07000000      20.00000000      25.87700000       78 
Pt     18.06400000      21.93600000      23.88900000       78 
Pt     20.00000000      18.07000000      25.87700000       78 
Pt     21.93600000      18.06400000      23.88900000       78 
Pt     20.00000000      20.00000000      23.90500000       78 
Pt     20.00000000      21.93000000      25.87700000       78 
Pt     21.93000000      20.00000000      25.87700000       78 
Pt     21.93600000      21.93600000      23.88900000       78 
Pt     23.86200000      18.06500000      25.83500000       78 
Pt     25.83500000      18.06500000      23.86200000       78 
Pt     23.87200000      20.00000000      23.87200000       78 
Pt     23.86200000      21.93500000      25.83500000       78 
Pt     25.78700000      20.00000000      25.78700000       78 
Pt     25.83500000      21.93500000      23.86200000       78 
Pt     27.72900000      18.06200000      25.77900000       78 
Pt     29.71000000      18.05200000      23.88600000       78 
Pt     27.81800000      20.00000000      23.85900000       78 
Pt     27.72900000      21.93800000      25.77900000       78 
Pt     29.68100000      20.00000000      25.82000000       78 
Pt     29.71000000      21.94800000      23.88600000       78 
Pt     10.42800000      23.84200000      25.76400000       78 
Pt     10.42800000      25.76400000      23.84200000       78 
Pt     12.25300000      23.86100000      23.86100000       78 
Pt     12.24700000      25.82000000      25.82000000       78 
Pt     14.16800000      23.89700000      25.83200000       78 
Pt     14.16800000      25.83200000      23.89700000       78 
Pt     16.11400000      23.88600000      23.88600000       78 
Pt     16.10300000      25.83200000      25.83200000       78 
Pt     18.06500000      23.86200000      25.83500000       78 
Pt     18.06500000      25.83500000      23.86200000       78 
Pt     20.00000000      23.87200000      23.87200000       78 
Pt     20.00000000      25.78700000      25.78700000       78 
Pt     21.93500000      23.86200000      25.83500000       78 
Pt     21.93500000      25.83500000      23.86200000       78 
Pt     23.88600000      23.88600000      23.88600000       78 
Pt     23.89700000      25.83200000      25.83200000       78 
Pt     25.83200000      23.89700000      25.83200000       78 
Pt     25.83200000      25.83200000      23.89700000       78 
Pt     27.74700000      23.86100000      23.86100000       78 
Pt     27.75300000      25.82000000      25.82000000       78 
Pt     29.57200000      23.84200000      25.76400000       78 
Pt     29.57200000      25.76400000      23.84200000       78 
Pt     12.26100000      27.73900000      23.88400000       78 
Pt     14.18000000      27.75300000      25.82000000       78 
Pt     14.23600000      29.57200000      23.84200000       78 
Pt     16.13900000      27.74700000      23.86100000       78 
Pt     16.15800000      29.57200000      25.76400000       78 
Pt     18.06200000      27.72900000      25.77900000       78 
Pt     18.05200000      29.71000000      23.88600000       78 
Pt     20.00000000      27.81800000      23.85900000       78 
Pt     20.00000000      29.68100000      25.82000000       78 
Pt     21.93800000      27.72900000      25.77900000       78 
Pt     21.94800000      29.71000000      23.88600000       78 
Pt     23.86100000      27.74700000      23.86100000       78 
Pt     23.84200000      29.57200000      25.76400000       78 
Pt     25.82000000      27.75300000      25.82000000       78 
Pt     25.76400000      29.57200000      23.84200000       78 
Pt     27.73900000      27.73900000      23.88400000       78 
Pt     16.11600000      12.26100000      27.73900000       78 
Pt     18.08600000      10.44800000      27.65900000       78 
Pt     18.08600000      12.34100000      29.55200000       78 
Pt     20.00000000      10.58600000      29.41400000       78 
Pt     21.91400000      10.44800000      27.65900000       78 
Pt     20.00000000      12.35800000      27.64200000       78 
Pt     21.91400000      12.34100000      29.55200000       78 
Pt     23.88400000      12.26100000      27.73900000       78 
Pt     12.26100000      16.11600000      27.73900000       78 
Pt     14.18000000      14.18000000      27.75300000       78 
Pt     14.23600000      16.15800000      29.57200000       78 
Pt     16.15800000      14.23600000      29.57200000       78 
Pt     16.13900000      16.13900000      27.74700000       78 
Pt     18.06200000      14.22100000      27.72900000       78 
Pt     18.05200000      16.11400000      29.71000000       78 
Pt     20.00000000      14.18000000      29.68100000       78 
Pt     21.93800000      14.22100000      27.72900000       78 
Pt     20.00000000      16.14100000      27.81800000       78 
Pt     21.94800000      16.11400000      29.71000000       78 
Pt     23.84200000      14.23600000      29.57200000       78 
Pt     25.82000000      14.18000000      27.75300000       78 
Pt     23.86100000      16.13900000      27.74700000       78 
Pt     25.76400000      16.15800000      29.57200000       78 
Pt     27.73900000      16.11600000      27.73900000       78 
Pt     10.44800000      18.08600000      27.65900000       78 
Pt     10.58600000      20.00000000      29.41400000       78 
Pt     10.44800000      21.91400000      27.65900000       78 
Pt     12.34100000      18.08600000      29.55200000       78 
Pt     12.35800000      20.00000000      27.64200000       78 
Pt     12.34100000      21.91400000      29.55200000       78 
Pt     14.22100000      18.06200000      27.72900000       78 
Pt     14.18000000      20.00000000      29.68100000       78 
Pt     14.22100000      21.93800000      27.72900000       78 
Pt     16.11400000      18.05200000      29.71000000       78 
Pt     16.14100000      20.00000000      27.81800000       78 
Pt     16.11400000      21.94800000      29.71000000       78 
Pt     18.06900000      18.06900000      27.83800000       78 
Pt     18.05600000      20.00000000      29.75100000       78 
Pt     18.06900000      21.93100000      27.83800000       78 
Pt     20.00000000      18.05600000      29.75100000       78 
Pt     21.93100000      18.06900000      27.83800000       78 
Pt     20.00000000      20.00000000      27.85900000       78 
Pt     20.00000000      21.94400000      29.75100000       78 
Pt     21.94400000      20.00000000      29.75100000       78 
Pt     21.93100000      21.93100000      27.83800000       78 
Pt     23.88600000      18.05200000      29.71000000       78 
Pt     25.77900000      18.06200000      27.72900000       78 
Pt     23.85900000      20.00000000      27.81800000       78 
Pt     23.88600000      21.94800000      29.71000000       78 
Pt     25.82000000      20.00000000      29.68100000       78 
Pt     25.77900000      21.93800000      27.72900000       78 
Pt     27.65900000      18.08600000      29.55200000       78 
Pt     29.55200000      18.08600000      27.65900000       78 
Pt     27.64200000      20.00000000      27.64200000       78 
Pt     27.65900000      21.91400000      29.55200000       78 
Pt     29.41400000      20.00000000      29.41400000       78 
Pt     29.55200000      21.91400000      27.65900000       78 
Pt     12.26100000      23.88400000      27.73900000       78 
Pt     14.23600000      23.84200000      29.57200000       78 
Pt     14.18000000      25.82000000      27.75300000       78 
Pt     16.13900000      23.86100000      27.74700000       78 
Pt     16.15800000      25.76400000      29.57200000       78 
Pt     18.05200000      23.88600000      29.71000000       78 
Pt     18.06200000      25.77900000      27.72900000       78 
Pt     20.00000000      23.85900000      27.81800000       78 
Pt     20.00000000      25.82000000      29.68100000       78 
Pt     21.94800000      23.88600000      29.71000000       78 
Pt     21.93800000      25.77900000      27.72900000       78 
Pt     23.86100000      23.86100000      27.74700000       78 
Pt     23.84200000      25.76400000      29.57200000       78 
Pt     25.76400000      23.84200000      29.57200000       78 
Pt     25.82000000      25.82000000      27.75300000       78 
Pt     27.73900000      23.88400000      27.73900000       78 
Pt     16.11600000      27.73900000      27.73900000       78 
Pt     18.08600000      27.65900000      29.55200000       78 
Pt     18.08600000      29.55200000      27.65900000       78 
Pt     20.00000000      27.64200000      27.64200000       78 
Pt     20.00000000      29.41400000      29.41400000       78 
Pt     21.91400000      27.65900000      29.55200000       78 
Pt     21.91400000      29.55200000      27.65900000       78 
Pt     23.88400000      27.73900000      27.73900000       78 
