55
Lattice="20.0 0.0 0.0 0.0 20.0 0.0 0.0 0.0 20.0" Properties=species:S:1:pos:R:3:momenta:R:3:Z:I:1 pbc="F F F"
Au      5.18121000       7.00309000       9.58038000      49.35310623     -11.76001232    -190.32019109       79 
Au      9.25113000       7.18666000       9.91960000     -67.13710616    -101.28633474    -155.01448156       79 
Au      4.82799000       9.68570000       9.94001000     188.21065081       3.19702653      57.98561946       79 
Au      9.10089000       6.48400000       7.04921000    -142.48191499     128.84941660     -43.50326268       79 
Au      7.06233000       8.03162000       8.17748000     -26.85366825     189.22151426     -47.64347976       79 
Au      7.40861000       5.43850000       8.82809000    -172.59318431      59.08016886     -74.27602911       79 
Au      8.71540000       9.17570000       6.54855000    -136.48053530       5.06817694     141.92666835       79 
Au     10.56330000       7.69511000       5.21782000    -167.19603437     -76.31972974      70.82786927       79 
Au     10.82060000       5.31255000       8.65109000     190.23992621       9.43168532     -50.15591599       79 
Au     11.14040000       8.13784000       7.90800000     153.42864149    -108.78307202     -58.49527618       79 
Au     12.39360000       6.29260000       6.61013000     118.89648731    -119.72753684    -101.61074919       79 
Au     13.92920000       8.57157000       7.65122000     -30.53827697     -81.30157919    -176.78594113       79 
Au     13.16730000       6.56588000       9.27737000    -191.01318444      30.41654959     -37.21020028       79 
Au     12.96460000       8.58886000       5.29553000     191.10946070     -47.57327543      -3.12403872       79 
Au      9.47534000       9.97405000       9.15294000    -138.64385696    -139.88799947       2.24291195       79 
Au      6.92793000      10.73100000       8.55504000     -30.07162945     191.23660998      36.33260555       79 
Au      7.69996000      13.28970000       8.91151000     111.18253494     -91.26832595     134.55236425       79 
Au      9.00052000      11.81470000       6.99563000      49.35310623     -11.76001232    -190.32019109       79 
Au      9.48441000      14.44470000       7.17571000     -11.42115407    -183.32659477      71.11061110       79 
Au      9.41871000      15.29630000       9.65702000     187.03411910     -49.77829105      36.55355185       79 
Au     11.12080000      10.27940000       6.15867000    -187.26543400      17.58683312      58.46505497       79 
Au     10.41370000      12.72200000       9.20832000     -15.86026111    -172.51905291      93.70928782       79 
Au     13.68900000      11.04370000       6.40126000     118.12455872       1.28986368    -157.60941279       79 
Au     15.13850000      10.86690000       8.57945000     -61.84447536      71.35051614    -172.85880607       79 
Au     12.32140000      10.62730000       8.76559000     -33.75074261    -119.96326668     152.53033843       79 
Au     11.61740000      12.86250000       6.71108000     -33.74206545     149.47026958     123.75747918       79 
Au     13.61110000      13.02570000       8.46832000     153.42864149    -108.78307202     -58.49527618       79 
Au     11.75460000      14.98860000       8.43455000     -28.40125801     100.12208116     167.22661131       79 
Au      9.10332000       4.57872000      10.64020000    -111.29800437     151.03518547      59.97440367       79 
Au      6.92553000       6.13256000      11.36020000    -185.43695064     -11.44119002     -65.40671703       79 
Au      9.23507000       6.33234000      12.74040000    -160.43982366     -84.48473910      76.92329924       79 
Au      7.07246000       7.93103000      13.42580000      49.35310623     -11.76001232    -190.32019109       79 
Au      4.84074000       7.90276000      11.95980000     -30.07162945     191.23660998      36.33260555       79 
Au      9.37992000       8.12028000      14.81010000     192.09756546     -39.41071766      18.46950997       79 
Au      7.18242000       8.89190000      10.75580000     175.47559544      33.74265758      82.85861805       79 
Au      9.47571000       9.04988000      12.21580000      31.52834006     121.99872203    -151.38717819       79 
Au     11.44290000       5.77769000      11.26870000     -40.86642682     -76.55071300     176.82116848       79 
Au     13.72580000       7.06861000      11.92290000     185.84153546      49.97626883      41.96544261       79 
Au     11.59560000       7.59993000      13.39300000    -160.43982366     -84.48473910      76.92329924       79 
Au     11.71610000       8.48806000      10.65120000     188.21065081       3.19702653      57.98561946       79 
Au     13.19980000       9.72667000      12.69260000    -127.09700403    -122.74978828     -87.03242595       79 
Au     14.38730000       8.99766000      10.27930000     184.77654391      28.44891527     -62.00072711       79 
Au      8.01634000      10.34280000      14.13380000     192.09756546     -39.41071766      18.46950997       79 
Au      5.80325000      12.17410000      10.63500000     -50.61053606    -144.79376134     123.56837151       79 
Au      5.78492000      10.33560000      12.55990000     111.84895947     158.83654419     -32.50483992       79 
Au      9.61628000      12.34320000      13.71500000      -4.48127842     195.76893100     -21.21899909       79 
Au      6.92972000      12.65790000      13.22980000    -103.63516712     -20.13224195     166.28363447       79 
Au      7.48951000      14.27490000      11.31870000     161.77716915      77.20922973     -81.62526881       79 
Au      8.33605000      11.56060000      11.21640000     158.51984422     -62.52097997      98.78455434       79 
Au     11.01990000      10.19270000      14.18900000     -89.33079684      80.96925506     155.75554756       79 
Au     12.35610000      12.47170000      13.17700000    -149.04286318      70.10328603    -108.01646331       79 
Au     10.07570000      13.89260000      11.77760000      59.51976918      39.01654204     183.65976328       79 
Au     12.46220000      13.83680000      10.76290000     -76.60339454      65.87008724    -169.08238724       79 
Au     11.12640000      11.15920000      11.38570000    -161.59188564      20.36900262     110.76537524       79 
Au     13.89010000      11.62100000      10.90250000     -40.86642682     -76.55071300     176.82116848       79 
