55
Lattice="20.0 0.0 0.0 0.0 20.0 0.0 0.0 0.0 20.0" Properties=species:S:1:pos:R:3:momenta:R:3:Z:I:1 pbc="F F F"
Au      7.29714000       9.81387000      11.02470000     -64.84718554      77.51027189    -169.06449184       79 
Au      7.56738000       7.71972000       9.13623000      32.88712986      92.03381632     171.00881692       79 
Au     14.04250000       9.71488000      11.98040000    -101.92341974    -161.61073628     -47.84755531       79 
Au      8.78755000       5.75375000       7.35722000     -26.87794789      94.28006456    -170.83514704       79 
Au     12.02620000      10.59610000       8.77466000      76.66270717     112.47623536     142.36477068       79 
Au      9.25555000       5.45126000       9.94715000    -153.95265699     118.79185743      31.35085543       79 
Au     13.05710000       7.19971000       8.36984000      49.12637363     154.96746064     111.20920681       79 
Au      7.66822000       5.81819000      12.00450000     107.71360789     135.06961884     -94.60327090       79 
Au      9.93037000       7.74179000      14.08250000      73.05945475       8.70642700    -182.70828203       79 
Au      7.37548000      14.62500000      11.02570000      58.77549590     184.52994378      35.91577723       79 
Au      9.42975000       7.95369000      11.45570000      41.29950945    -147.59053033    -123.72222112       79 
Au     10.77560000      14.52170000       6.80347000      24.17284243     147.01636112    -128.83192684       79 
Au     10.08400000      12.43750000       8.15854000     -50.09181018     -26.35137833     188.65899802       79 
Au     10.44810000      12.36850000      13.27010000     -50.89737238      -8.16778866    -190.10141198       79 
Au      7.30896000       8.02597000      13.40550000     -23.94430469    -167.65818027    -100.56444194       79 
Au      8.50900000       8.18886000       6.40152000     159.38680288      49.99335522     104.36624753       79 
Au      7.74826000      11.02640000       6.41801000     118.55805350      67.86235675    -141.89605565       79 
Au      9.12142000      14.64650000      13.01310000     139.54691670     -39.48959562     133.27802519       79 
Au      5.57664000      12.13720000      11.03890000    -110.71442163     157.58203406     -41.30401324       79 
Au      8.78859000      10.04550000       8.58831000      51.30998318     187.31838636      32.78581827       79 
Au      9.81396000      12.43670000       5.35165000    -108.53115968      75.45224306    -146.02653361       79 
Au     11.49640000       9.84278000      13.18160000       9.76489239     148.55691268     128.96236930       79 
Au      5.94056000      10.36560000      13.12830000      55.65899353     141.17282265    -125.57114599       79 
Au      7.86353000      12.35660000      12.34410000     135.88175188     112.08773276      88.13791348       79 
Au      9.53721000      16.19440000      11.01930000      85.50160638    -176.53803397      17.87735971       79 
Au      8.78922000      15.06930000       8.74116000     130.86477973     106.98647367    -101.11432143       79 
Au      6.26866000       6.39862000       7.09704000     -41.76154505     164.34417052    -100.21361730       79 
Au      8.80587000      10.15320000      13.54110000    -103.80975472     152.75951298     -68.43879120       79 
Au     11.16120000       7.28875000       6.24357000     -55.17553269     -99.16770702    -160.98828715       79 
Au     14.48140000       9.27477000       9.22574000      91.26155999     132.76526714     113.31599019       79 
Au     11.98670000       8.77389000      10.67290000      64.27819844     184.89541065      21.85869272       79 
Au     14.20860000       7.23694000      10.94150000    -192.25805446     -41.35973704      11.04602953       79 
Au      7.67637000      12.50690000       9.40584000     166.53117844     -74.20411124     -74.54474230       79 
Au     10.22860000       5.60488000      12.60710000     111.53334275      33.99820866    -158.74582635       79 
Au     11.26620000       5.25681000       8.00362000     183.42238718     -71.44947298       6.85585995       79 
Au     10.49730000      10.01550000       6.38690000     -41.67036951     188.82520228     -37.47566426       79 
Au     11.32250000      15.46200000       9.20892000      15.60595620     184.96837443      65.87075766       79 
Au     12.34160000       7.30814000      12.90910000     131.00003039     141.20314574      41.18817540       79 
Au     11.85000000       5.98771000      10.53720000       0.55051379    -174.76533497     -90.84369406       79 
Au      6.04048000       8.93923000       6.70629000     183.92480413     -29.05844442     -64.21117780       79 
Au     10.37680000       7.80986000       8.66255000     187.93639838     -14.62074624     -57.11344908       79 
Au      6.46978000       5.43797000       9.55859000    -160.74969902      40.45973660     106.38771593       79 
Au      4.51385000       9.74445000      10.90570000     -34.96926416    -100.34834664    -165.84077307       79 
Au     12.67320000      13.25630000       8.87416000     -69.77266565     182.37324751     -25.83748912       79 
Au     14.42080000      11.44000000       7.59789000    -132.76562359     145.48178359      -2.03518065       79 
Au      5.73371000       7.47279000      11.34930000     124.98057605     120.34187906      93.23888608       79 
Au     10.13430000      13.56660000      10.74790000      30.45274668     194.41594899       8.41849872       79 
Au     13.07050000       9.28662000       6.69064000     -39.48639033    -138.88405181    -133.96957585       79 
Au     14.58300000      11.70100000      10.15310000    -104.97754547    -135.91740284      96.44675565       79 
Au     12.24730000      12.14550000       6.36276000      96.08408845     168.40159141      34.70668640       79 
Au      9.90574000      10.80010000      10.97680000     -66.89579575     -24.91503944     183.57558510       79 
Au      5.92967000      10.51010000       8.73668000      76.54702732    -177.20674654     -39.16789133       79 
Au     12.35460000      11.84180000      11.37920000     -77.36088066    -177.47638015     -36.23852586       79 
Au      8.01524000      13.61410000       6.77062000      26.84723936     164.88751121    -104.34144194       79 
Au      4.88284000       7.89090000       8.88648000      65.31946653     185.24156116     -14.65378564       79 
