55
Lattice="20.0 0.0 0.0 0.0 20.0 0.0 0.0 0.0 20.0" Properties=species:S:1:pos:R:3:momenta:R:3:Z:I:1 pbc="F F F"
Au      7.44650000       8.17396000       7.87379000     134.88590798     -17.65491146     142.44261319       79 
Au      9.36948000       6.96633000       6.72188000     -78.73662814      96.28321087     152.72815332       79 
Au      6.00751000       6.39279000       9.29732000    -125.62298730    -149.17841504     -27.57657828       79 
Au      8.14640000       9.04243000       5.34391000     161.58520226      36.91110153     106.41238235       79 
Au      5.25192000       8.95716000       9.23499000    -161.49654285      -2.13668417     112.73909416       79 
Au      8.84324000       6.05001000       9.28074000      -1.98071907    -159.42995547     115.64587400       79 
Au      9.97475000       8.49792000       9.17189000     -49.23153886     149.43598118     118.49449453       79 
Au     15.31570000       9.68375000       8.18749000    -187.49517601     -59.42179356     -10.50768988       79 
Au     13.71080000       8.72432000       6.23679000     -25.81624937     -50.76649161    -188.55260995       79 
Au     11.02240000       8.55436000       5.45195000     143.38426494     107.39810752     -81.86819401       79 
Au     13.91300000       7.68530000       8.99381000     135.80632872     -14.56999448    -141.91602609       79 
Au     12.25530000       9.77233000       8.07836000     -42.05580837      75.82489998    -176.85501307       79 
Au     11.80700000       7.04158000       7.56495000     -89.83244390     160.36274498     -70.77940498       79 
Au      7.86699000      12.07720000       5.41265000     134.62280075     -46.74740080     135.96758495       79 
Au      6.26158000      13.33680000       7.34844000     -45.35247187      41.13015107    -187.20915066       79 
Au      8.37506000      14.66410000       6.29739000      90.92252874    -162.87889771      63.24049787       79 
Au      4.94452000      11.57040000       8.88377000      14.18701738      20.14959227     195.41884400       79 
Au      6.54894000      10.57140000       7.06131000     108.06708960      78.75776955     144.61853271       79 
Au      7.79443000      15.14020000       8.77993000     -53.62528483     187.80733018     -25.46640295       79 
Au      8.75329000      12.63930000       8.09752000      51.87933180    -176.67664178      69.92639920       79 
Au      7.72701000      10.54160000       9.53046000     176.71860629     -72.72569058      47.72117183       79 
Au      9.81011000      10.71980000       4.25394000     102.92647077      72.63800692     151.41223097       79 
Au      9.66897000      10.34150000       7.04634000      21.42109350    -177.11833948      83.46276233       79 
Au     12.13180000      10.95070000       5.45639000     181.79992760      63.82247989     -40.88128553       79 
Au     10.40320000      14.72520000       8.21678000      74.72645992     130.88676132     126.80857235       79 
Au     11.85830000      12.53690000       7.80376000     -38.71580271    -120.51553476     150.90690714       79 
Au     10.33230000      13.00670000       5.71364000     160.94904344     -34.30756232     108.23215190       79 
Au     14.22090000      11.47280000       6.82850000     191.58151609      -6.94492060      45.21164556       79 
Au     13.77810000      11.55010000       9.52427000      45.42645709      10.79417673    -191.35235788       79 
Au      7.08658000       5.47319000      11.36870000     -82.14747536     125.73846613     127.42618471       79 
Au      9.76257000       9.47163000      11.92670000      50.95755984     -56.97592725     181.52926192       79 
Au      5.19933000       8.29146000      14.27850000      74.58152769      32.34191193    -179.40846854       79 
Au      7.39959000       8.81732000      15.55220000     155.11443502     -94.00690709     -76.79853897       79 
Au      7.26124000       6.86273000      13.58430000     -48.33828528     -18.43488174     190.05096010       79 
Au      5.23229000       7.66495000      11.74130000    -150.63248066     108.79362343      65.34221755       79 
Au      9.57169000       8.12588000      14.30940000    -135.02402269      96.96514287     105.65072876       79 
Au      9.50648000       6.58349000      11.94040000    -165.10887593     -29.04570962    -103.39829768       79 
Au      7.59529000       8.10837000      10.73620000     -23.00660670     170.82972686     -95.30846023       79 
Au      7.14659000       9.52530000      13.07500000    -176.27111518     -36.29651299      80.04285865       79 
Au     15.03740000       9.53235000      10.82180000     172.38166984     -56.87376072      76.45742193       79 
Au     11.62690000       6.60113000      10.25780000      28.74362119    -144.77564643    -130.42092840       79 
Au     12.33540000       9.24430000      10.86870000    -136.37961925     137.99562603     -33.96481665       79 
Au     14.00150000       9.13084000      13.18890000     -69.97654523    -165.63254371     -80.40488607       79 
Au     14.04140000       7.09079000      11.53780000     -61.98052351     178.13304557     -56.77001764       79 
Au     11.83670000       7.47652000      12.94770000      71.97310985    -180.78007690      30.56529694       79 
Au     11.63590000      10.04110000      13.85230000      94.17936043      48.19364178    -166.14277921       79 
Au      9.35671000      13.79980000      10.57290000    -115.04714266     120.54444880     105.01901234       79 
Au      5.57923000      10.59920000      11.26950000     -67.31295309    -165.98813574      81.93111291       79 
Au      6.67893000      13.09020000      10.08090000      19.23502637    -177.18747368     -83.84757035       79 
Au      8.11104000      11.81190000      11.97090000    -187.27393264     -58.58853960      17.07803566       79 
Au      9.11546000      10.78300000      14.38670000      -5.20933758     -79.85713846     179.97639390       79 
Au     10.53070000      11.28350000       9.92119000     -27.91042551     157.06323604     115.53332919       79 
Au     12.00560000      13.46620000      10.38860000    -104.20248204    -164.12969681      31.60834518       79 
Au     10.68950000      12.22310000      12.52590000      14.09743282     -89.44491823     174.91904160       79 
Au     13.20480000      11.49450000      12.09350000     135.95625767      31.91055975    -138.90073542       79 
