55
Lattice="20.0 0.0 0.0 0.0 20.0 0.0 0.0 0.0 20.0" Properties=species:S:1:pos:R:3:momenta:R:3:Z:I:1 pbc="F F F"
Au      7.77375000       5.63381000       7.96098000     -96.60321333    -170.60281111     -18.92887050       79 
Au      8.08896000       7.65446000       6.37166000     -15.28666811      88.96539277    -175.06364211       79 
Au      8.94666000      10.77360000       9.20760000     -29.45976395      77.32136181    -178.74375916       79 
Au      5.76021000       7.63334000       7.75086000    -149.04286318      70.10328603    -108.01646331       79 
Au      5.94750000      10.13090000       9.54938000     -46.87080845    -156.35880329    -110.23091250       79 
Au      7.22914000      10.03650000       7.14181000     126.30549747      70.92416193     133.46342827       79 
Au      9.23659000      10.37830000       5.26201000     158.38325481      62.74619693      98.86081877       79 
Au      7.79938000       8.09672000       9.26474000     110.05116944     -52.27233871    -154.76480489       79 
Au     10.03650000       9.07519000       7.36922000    -182.42948166     -71.78900532     -19.01644185       79 
Au     12.53250000       8.03587000       7.22496000      57.50755049    -181.99603561      48.64284924       79 
Au     11.95350000       9.77108000       9.23581000      -2.66616314      14.84997571    -196.38781000       79 
Au     13.79400000      10.52410000       7.38584000    -120.51088249      13.02276150     155.25249437       79 
Au     11.89290000      10.16440000       5.49180000     108.02956726     -73.05701491    -147.60788357       79 
Au     10.15230000       6.61925000       8.33304000      46.01954481     -55.14877259    -183.40288029       79 
Au     14.37060000       8.52292000       9.14696000      59.51976918      39.01654204     183.65976328       79 
Au     12.35910000       6.89747000       9.71514000     -76.60339454      65.87008724    -169.08238724       79 
Au      8.33943000      12.50410000       6.53612000     -81.22015686      15.25287116    -178.79160540       79 
Au      9.43746000      13.59000000       8.84515000     194.42560947      20.06880247      24.32545313       79 
Au      6.78538000      12.53480000       8.73539000      46.10160924     185.37530971      48.02539223       79 
Au      7.30721000      14.94620000       7.62794000     -67.76347243     115.07750441    -144.77942500       79 
Au      9.40381000      14.95780000       6.22000000     169.74616970     -16.68961552     -98.50632837       79 
Au      9.50300000      16.10460000       8.80168000     163.42469329      67.06458183     -87.12355369       79 
Au     11.02820000      11.74920000       7.45186000      -1.92761523     180.45161016     -78.92593244       79 
Au     11.63710000      14.48740000       7.28224000     -96.15110837     122.87883453     120.21463516       79 
Au     13.07830000      12.60670000       5.85305000     175.30674178      69.13433480     -57.30438168       79 
Au     10.59670000      12.77560000       5.04782000      41.41126621      31.60224414     189.95317138       79 
Au     13.51060000      13.03940000       8.49776000     121.61809899     154.71467899      -8.25882709       79 
Au      4.75452000       7.94263000      10.20610000    -161.59188564      20.36900262     110.76537524       79 
Au      5.18481000       9.80573000      12.16230000     -24.03213028     171.59474862      93.66696901       79 
Au      6.17625000       5.81045000       9.84670000     100.98028543      16.86547881     168.26865335       79 
Au      9.10200000       7.75591000      13.11180000     159.98777653     114.64153884      -7.55189085       79 
Au      6.70761000       7.38115000      11.88980000      87.94508551     168.47184032     -51.75618878       79 
Au      8.86619000       6.01034000      10.71840000     -86.41481623    -107.19986121    -140.84200870       79 
Au      7.83036000       9.87763000      11.68210000     -44.73181967     178.36060801      70.58583387       79 
Au      6.78176000       8.92500000      14.08320000     108.32541515    -160.38134666      36.59549424       79 
Au      9.09316000      10.17220000      14.42770000    -121.78426145     -17.71100677    -153.78789297       79 
Au     10.51250000      10.66320000      12.14270000      47.72020433      62.76563550     180.49670141       79 
Au     10.14680000       8.39221000      10.62700000     196.84406474       3.24674163      -6.13799363       79 
Au     11.50790000       8.85759000      13.79180000       6.39207049    -160.31440359    -114.25513362       79 
Au     12.97210000       8.78436000      11.56660000    -190.62508356      49.50159617      -2.73342587       79 
Au     11.31840000       6.62274000      12.16740000      -8.39420415     128.31180251     149.20261659       79 
Au      6.87513000      11.60010000      13.62570000     152.19624007     -77.35982610      98.22201350       79 
Au      5.91506000      12.33910000      11.27060000     190.02587976      10.32194630      50.78803567       79 
Au      8.63504000      12.53840000      11.31140000      19.55039344     173.21140677     -91.71364568       79 
Au      7.22616000      14.78730000      10.23840000      78.74209133     178.27449402      28.52525125       79 
Au      7.21915000      14.21380000      12.82860000    -146.99893658      51.13661030    -120.71520970       79 
Au      9.25646000      12.88460000      13.92770000     153.22747010     -69.02157730    -102.72860554       79 
Au     11.51740000      12.27210000      10.21680000      10.97866014     -60.13714464    -187.23993959       79 
Au     14.22630000      11.00750000      10.15290000      61.58023242     138.65545814     125.61186657       79 
Au     13.13620000      11.27840000      12.58830000    -183.45718865     -42.73759771      57.55657909       79 
Au      9.56546000      15.05520000      11.46640000    -176.15775757      84.38772406     -25.35662825       79 
Au     11.77610000      14.93810000       9.95767000     104.60923267     105.14168517    -129.60685400       79 
Au     11.43670000      11.49110000      14.57660000     171.38307479     -95.62993216     -16.69011303       79 
Au     13.75220000      13.49800000      11.15490000    -182.97358641      31.98721046      65.52318036       79 
Au     11.47200000      13.50310000      12.61000000     195.77121563      17.42287958      12.87930593       79 
