55
Lattice="20.0 0.0 0.0 0.0 20.0 0.0 0.0 0.0 20.0" Properties=species:S:1:pos:R:3:momenta:R:3:Z:I:1 pbc="F F F"
Au     12.93130000      10.13160000      12.72750000       5.62629533     134.98108859    -143.33266427       79 
Au     14.09840000      13.47960000       9.67349000    -172.58091647     -86.21881771     -39.72335415       79 
Au      9.43282000      14.37890000      12.38130000     -71.24672868     -60.20276325    -173.48006535       79 
Au      8.14617000       7.62889000      10.77840000    -182.04145074      44.32741871      60.76012084       79 
Au     11.94130000      14.23340000      11.20070000    -139.90941994      87.17643407    -107.80271647       79 
Au      6.46434000       8.64998000      12.92290000     134.15673869     143.24871970     -16.66060895       79 
Au      7.07796000      13.02310000      12.18740000    -135.10284414    -115.87080331     -84.36219870       79 
Au      9.06657000       7.77003000      13.21540000     -57.10517219      24.84429378     186.86241596       79 
Au     10.52710000       9.85843000      13.98520000      -9.18649583      99.15658427    -169.93934863       79 
Au     13.79180000      12.62220000      12.26670000     184.20265994     -64.41880749     -26.74695186       79 
Au      8.28518000      10.48680000      12.25880000     -77.35551760    -107.60590889     145.71511380       79 
Au      9.35386000      12.51250000      10.48360000      19.73351481     195.27691862      16.53225849       79 
Au     11.64900000       7.60094000      12.58630000     -51.92430160    -185.13577382     -42.71316279       79 
Au     11.01970000      12.16240000      12.75070000    -123.38268819    -153.33649211       7.77396704       79 
Au      6.19692000      11.17680000      13.91600000     118.55620857     132.46673640      84.81032531       79 
Au      8.74950000      12.23740000      14.19940000       0.00000000       0.00000000       0.00000000       79 
Au      8.04919000       9.66574000      14.89270000       0.00000000       0.00000000       0.00000000       79 
Au     13.31790000       8.51436000      10.64510000    -147.08534707     -62.67294012    -115.03827787       79 
Au     10.07340000       5.71049000      11.42890000     108.81425073     162.17729549     -25.56923519       79 
Au     12.28120000      11.43820000      10.35730000     103.87021228       2.17714940     167.33810428       79 
Au     14.84320000      10.84700000      10.56630000    -100.07537099    -115.78649081    -123.99278523       79 
Au     10.48940000       9.58840000      11.12560000      52.35170477    -126.34845145    -141.74332417       79 
Au      7.66895000      14.82600000      10.38090000      34.65740627    -115.90376394    -155.43803852       79 
Au      5.50491000       8.43097000      10.48820000      58.33654751     -33.66182822    -185.09330260       79 
Au     10.11090000      15.43350000       9.73597000     -93.00933876     131.84820022    -112.96511463       79 
Au      5.66209000      10.85150000      11.26570000     167.21234234     102.00953861      20.73375810       79 
Au     14.08790000      11.48890000       7.95996000     -71.46960463    -110.58985399     146.48474982       79 
Au     14.93710000       8.95162000       8.64628000      45.66655211    -179.39248374     -67.29565304       79 
Au     10.82120000       7.42162000       9.58866000     -30.15187046    -152.27973551    -121.23344828       79 
Au      8.73313000       5.73178000       8.90132000    -182.04145074      44.32741871      60.76012084       79 
Au     11.26160000       4.81890000       9.02620000       0.00000000       0.00000000       0.00000000       79 
Au     12.76130000       5.91603000      10.74730000       0.00000000       0.00000000       0.00000000       79 
Au     13.01710000       6.97769000       8.04528000     -16.51319738     157.84548704    -116.65298391       79 
Au      7.84815000       6.27233000       6.42950000    -127.00532048      65.51226771     135.54922896       79 
Au      6.65686000       7.55952000       8.37283000     127.72222504      62.39674468     136.34324921       79 
Au     10.55770000       6.16403000       6.86384000      67.70057562    -155.72062832      99.81743384       79 
Au      7.84039000      10.00780000       9.55663000      96.41691095    -127.24611731     115.36033562       79 
Au      5.56325000      10.12020000       8.33626000    -109.28411519     152.64808101     -59.59318463       79 
Au      6.67893000      12.50230000       9.42062000      73.31321612     134.69421082     123.60600324       79 
Au      7.06854000       9.02647000       6.16814000      -3.21017258    -171.35560781      97.07086373       79 
Au      9.21416000       8.42898000       7.64111000      47.86368668     106.69211928     158.49814290       79 
Au      7.52797000      11.52340000       7.00676000    -112.50509822     123.20971831    -104.67936908       79 
Au      9.92322000      11.07000000       8.11397000     -54.83738501      18.60170138     188.26215773       79 
Au      8.64767000      13.83880000       8.04809000       0.40625895    -190.75751701     -49.06329363       79 
Au     12.70510000      15.56980000       8.83626000    -125.44442508      65.66272272    -136.92298997       79 
Au     13.06720000      13.80260000       6.74780000     191.39899750     -38.61671848      25.90318380       79 
Au      9.17743000       7.76655000       4.91338000      26.09803077    -190.51614243     -42.64146320       79 
Au     11.41900000      13.21690000       8.57710000    -191.00981931      26.22051486      40.29312162       79 
Au     11.51610000       8.48351000       5.93169000     164.32398398    -100.91327217     -40.12408143       79 
Au     12.16120000       9.53909000       8.36641000      71.26392207     125.06744236     134.44474849       79 
Au     13.97840000       9.22232000       6.33782000     173.85790256     -92.26057490       7.56426841       79 
Au     10.12820000      12.97700000       6.02188000     130.39130257     100.12311335     108.48627798       79 
Au      9.48699000      10.34110000       5.49466000    -119.76217058     154.23144513     -25.79701443       79 
Au     10.79620000      15.33890000       7.05459000      29.36412601     130.46772737     144.60885983       79 
Au     12.09380000      11.24790000       6.15290000       0.00000000       0.00000000       0.00000000       79 
