55
Lattice="20.0 0.0 0.0 0.0 20.0 0.0 0.0 0.0 20.0" Properties=species:S:1:pos:R:3:momenta:R:3:Z:I:1 pbc="F F F"
Au     12.52800000       7.12980000      11.45160000    -124.82010711    -143.40336969     -51.48996549       79 
Au     11.74520000      14.87070000      10.68580000    -185.24821579      55.95467977     -36.71477197       79 
Au     12.40230000       9.96500000      10.12650000      24.53084962     165.69158325     103.63560575       79 
Au     13.22750000       9.31702000      12.80130000     -97.35255246     -12.97220618    -170.73372402       79 
Au     13.82220000      12.01270000      13.85360000     -28.37919002    -105.13504076    -164.12509528       79 
Au      9.22976000      11.65680000      10.91160000     125.52005700      14.88558080     151.05938202       79 
Au     11.54210000      13.02600000      14.80320000    -187.72452271      59.61758752       1.02418495       79 
Au      9.44896000      11.76020000      13.83880000     162.63050903     -42.28957574     102.75559079       79 
Au     13.91820000      13.43550000      10.94530000    -125.44442508      65.66272272    -136.92298997       79 
Au     11.70700000      10.36300000      14.63200000      15.73856427     189.63088447     -50.87462406       79 
Au     11.86270000      11.97130000      12.11200000     125.06063807     128.54533410     -81.43547144       79 
Au     12.79030000      14.43010000      13.11080000      33.06438291     -93.91494824     169.94861342       79 
Au     10.05710000      14.02410000      12.62530000    -135.64211116    -122.49323127      73.43315391       79 
Au      9.09832000      14.25180000      10.11990000     128.24636865    -114.94472614     -95.58441810       79 
Au     14.65620000       8.66361000      10.42150000     -20.05360704      95.01165767    -171.36639074       79 
Au     14.78160000      11.03120000      11.61000000    -173.29288911      28.71051143      89.11275576       79 
Au      6.92557000      12.80340000       9.50034000     -71.24672868     -60.20276325    -173.48006535       79 
Au     10.08290000       5.71716000      11.82580000    -182.04145074      44.32741871      60.76012084       79 
Au      9.34895000       9.21394000      14.79860000     140.00993131       7.31237383     138.34576411       79 
Au      5.63616000       8.08941000       9.40987000     157.81465126      93.77069280      71.39604429       79 
Au      7.53561000       6.50981000      10.65210000     134.15673869     143.24871970     -16.66060895       79 
Au      5.88780000      10.83490000      10.97640000    -135.10284414    -115.87080331     -84.36219870       79 
Au      7.49015000      10.23710000      13.04070000     161.28867696      60.73186514      95.35934858       79 
Au     10.41950000       9.52884000      12.20860000      -9.18649583      99.15658427    -169.93934863       79 
Au     10.23770000       7.65034000      10.09380000      67.62245672     125.78220012     135.65339510       79 
Au     11.16510000       7.53223000      13.72910000    -106.19170882    -165.31770276      13.75428139       79 
Au      8.01864000       9.30669000      10.47510000     -77.35551760    -107.60590889     145.71511380       79 
Au      8.51126000       7.62679000      12.86260000     -51.92430160    -185.13577382     -42.71316279       79 
Au      7.42174000      12.91990000      12.19790000    -123.38268819    -153.33649211       7.77396704       79 
Au      5.97098000       8.30430000      12.01260000     118.55620857     132.46673640      84.81032531       79 
Au      8.28443000       8.02070000       8.11133000    -189.54196514     -24.62636610      47.57297201       79 
Au      6.52173000      12.49940000       6.82846000     -86.66073084      31.10121123     174.12189556       79 
Au      6.42036000      10.31610000       8.31900000      19.51411071      43.10940128     191.19775398       79 
Au     14.30170000       9.35275000       7.84553000     141.08167891      95.80156520     -98.55872414       79 
Au     12.60760000      11.27130000       7.15457000     191.39899750     -38.61671848      25.90318380       79 
Au     10.71340000       6.59168000       7.33702000     188.68354953     -30.96020476     -47.28409861       79 
Au     10.80480000      15.23430000       8.28690000     160.69319132      33.17294753     108.96355325       79 
Au      8.94855000      11.64490000       8.00770000     -17.78075992     178.06752270      82.28975671       79 
Au      8.18913000       6.03456000       6.32676000      26.09803077    -190.51614243     -42.64146320       79 
Au      7.75963000      10.13170000       5.98809000     -79.29969294    -121.79012963    -132.94557212       79 
Au     11.32610000      12.48550000       9.34004000    -191.00981931      26.22051486      40.29312162       79 
Au      9.54454000       8.21689000       5.60424000     164.32398398    -100.91327217     -40.12408143       79 
Au      6.46000000       5.86649000       8.23685000     -38.02668860     143.06636294     129.92993832       79 
Au     12.78410000       7.49471000       8.74676000      54.30123908    -102.98059886    -158.87785817       79 
Au      9.03211000       5.26997000       8.91095000     174.99416830     -75.67601264     -49.45689329       79 
Au     10.63000000       9.51315000       8.07596000      71.26392207     125.06744236     134.44474849       79 
Au      6.20222000       7.98048000       6.61337000     143.69605307      14.55563042     133.92303789       79 
Au     12.24760000       8.64193000       6.20336000     173.85790256     -92.26057490       7.56426841       79 
Au     10.88500000      13.26110000       6.63466000     130.39130257     100.12311335     108.48627798       79 
Au     11.56440000       5.27808000       9.67371000      31.30999495    -194.03564759     -12.87065664       79 
Au     10.44920000      10.73180000       5.59215000    -119.76217058     154.23144513     -25.79701443       79 
Au     13.15940000      13.95220000       8.28477000      29.36412601     130.46772737     144.60885983       79 
Au      8.61788000      12.64750000       5.35413000     -99.03493622    -141.34336477      94.92068670       79 
Au     14.38320000      11.63550000       9.09239000    -158.06162889     102.21784016      57.99859264       79 
Au      8.41776000      14.26050000       7.51071000      -8.46252613     196.65436883      -7.15870067       79 
