55
Lattice="20.0 0.0 0.0 0.0 20.0 0.0 0.0 0.0 20.0" Properties=species:S:1:pos:R:3:Z:I:1:momenta:R:3 pbc="F F F"
Au     10.49480000       7.18792000      12.45930000       79    -134.27836726    -126.83931276     -68.38794447 
Au      7.50050000      10.26810000      10.29830000       79       5.17965496      17.61825813    -196.10856758 
Au      6.27413000      14.63740000       9.88969000       79     139.52039145      32.45965977     135.18961861 
Au      8.58793000       7.70164000      10.25760000       79     151.71016166      -7.74937590    -125.37853143 
Au      6.73033000      11.19870000      12.69190000       79     -81.92851469     178.03703050      19.65544134 
Au      5.35261000      13.39330000       7.86221000       79      25.14105168      91.82159162    -172.43121804 
Au     15.78820000      10.17690000      11.91170000       79     -74.15337555      43.01755255     177.33180535 
Au     13.47240000       8.12750000      11.86290000       79    -191.11125500      31.83105146     -35.48343979 
Au     13.82810000      10.39070000      13.46930000       79     -31.78080318    -117.05977447    -155.18631342 
Au      6.75629000       8.25542000       8.18318000       79     -88.25763855     176.07139256       2.29261481 
Au      7.89749000       5.70235000       8.64067000       79     -23.21975574     161.65952232     110.10378699 
Au     10.29330000      15.91690000       7.51741000       79     129.84881904     133.84043258      63.41785965 
Au      9.41686000      11.84530000      13.20110000       79     -92.89460688      22.36232245     172.23913803 
Au      9.25092000       9.71601000       8.25281000       79      70.61639930      24.41234736    -182.24479024 
Au     12.83130000      14.99780000       7.95208000       79     -72.74527165     170.46799776     -66.66775318 
Au     14.02300000       9.83802000       7.84960000       79      11.78045028    -143.52335609     134.38031616 
Au     10.14380000      11.33330000      10.69440000       79      66.61419133    -143.68180949    -117.10631604 
Au     15.32790000      11.58840000       9.57051000       79    -150.61835560      39.25678099     120.70135967 
Au     13.30770000       7.46404000       9.06816000       79    -109.35740703    -150.11500863     -65.59149209 
Au      9.25960000      14.23870000       5.79962000       79     146.10722970     -31.66221063     128.24189631 
Au      7.54950000      14.98850000       7.53555000       79     -54.27875916      85.23818409    -169.06824184 
Au      4.97664000       9.41240000      10.00570000       79    -144.06500816     -89.26226834    -100.36594541 
Au     10.44450000      13.53630000       8.61703000       79     146.68203596     109.29662382      73.03718554 
Au      7.79882000       6.55272000      12.53350000       79     112.39365198     115.59941129     113.13816874 
Au      9.69867000      11.70680000       6.40968000       79     -45.79709041     188.59911739     -33.59764204 
Au     12.14710000       5.99592000      10.86750000       79    -111.56043625     -43.66279640     156.34459184 
Au      7.62435000       9.85506000       6.06885000       79    -150.98458758    -113.28474165      56.26743059 
Au      8.73218000       9.28897000      12.60500000       79     113.84094743    -130.95196287     -93.20742584 
Au     11.35240000       9.74249000      12.83760000       79    -104.20483066     -41.34002649    -161.95109632 
Au      8.96367000       7.45358000       6.82132000       79    -167.47660919     -39.64042275      95.79156738 
Au      5.94274000       6.86005000      10.32830000       79      99.63073203     157.77559709      63.05854677 
Au      5.89823000      10.80390000       7.87882000       79      40.42395025     119.71920958    -151.09274379 
Au     12.33670000      10.82180000       5.83802000       79     107.76309968     -23.35447179     163.20994184 
Au     11.61740000       8.52543000       7.25947000       79      78.27870118     160.37236983      83.36036264 
Au     12.82570000      13.25010000      10.08530000       79     191.56827543       7.88237689      45.11392362 
Au     14.66440000      12.52180000      11.98660000       79     -93.88860439    -171.43869125     -24.27976996 
Au     11.16380000       8.68423000      10.20080000       79    -155.46916630    -102.64400712      63.94801213 
Au      7.92153000      13.11120000      11.32700000       79     103.69521742     140.68269824     -90.83767072 
Au      8.82242000      15.37180000       9.84228000       79      63.78868085    -185.12326993     -21.35839999 
Au     13.83760000      12.53620000       7.55482000       79      -8.20212451    -167.65263460     103.05882490 
Au      5.49672000      12.10130000      10.31480000       79      38.34145071    -185.37928302      54.40824115 
Au     11.76010000      13.47690000       6.15265000       79     170.69925188     -85.71359530     -48.07023103 
Au     10.60820000       6.41731000       8.68883000       79    -131.79752585     131.71855560     -63.83914482 
Au      7.93426000      12.50680000       8.64988000       79     117.39695642    -128.49371613     -92.21237261 
Au      9.58249000       5.18456000      10.86640000       79     134.24299527    -125.94416570     -70.09056619 
Au     10.45120000      13.97690000      11.53140000       79      51.00217587    -167.54492465      90.12923167 
Au     11.68670000      11.11290000       8.40102000       79     120.92335174    -142.82625857     -61.43293083 
Au      6.15749000       8.66077000      12.22340000       79     171.69350343     -18.33082561     -94.76879147 
Au      7.11581000      12.58020000       6.05799000       79     146.55123871     -92.67490125     -93.43392978 
Au     10.10480000       9.34207000       5.31214000       79     139.76882401      31.18735817     135.23249110 
Au      7.09226000       4.66864000      10.89270000       79    -189.07443916     -33.70857339     -43.70801593 
Au     15.34820000       8.81774000       9.89173000       79      62.74875568     -14.41387875    -186.14681271 
Au     11.48080000      15.79710000       9.94809000       79      66.46987013     -89.19945436    -162.54542697 
Au     12.10710000      12.31150000      12.68350000       79     182.49315909     -74.10693252       0.45995753 
Au     13.18200000      10.51960000      10.69470000       79     125.43864682     -42.18624746    -145.88100813 
