55
Lattice="20.0 0.0 0.0 0.0 20.0 0.0 0.0 0.0 20.0" Properties=species:S:1:pos:R:3:Z:I:1:momenta:R:3 pbc="F F F"
Au      8.73789000       7.30538000      12.26630000       79    -175.58690367     -41.83430756      78.83484060 
Au     12.41070000       5.09292000       6.60371000       79     193.61412900      24.93706483      26.22048759 
Au     13.82100000      11.99860000       7.81177000       79      62.47736966    -118.53535546    -144.36672023 
Au      6.33375000       9.74484000      14.82290000       79    -132.01148853    -136.61249756      52.01725221 
Au     11.70260000       4.92902000       9.22607000       79      91.54393376     155.08700609     -79.77174221 
Au     12.03050000      11.09250000      10.20430000       79      57.22816705     145.59518954     119.67781666 
Au      8.94443000      12.61810000      13.03790000       79     -47.50526858    -176.98252024      72.22353570 
Au     12.32190000      10.64620000       5.98234000       79    -126.25691971     150.00793761     -18.77793923 
Au     11.06480000       8.34167000      12.92760000       79    -152.74124338      20.67409621    -122.63154749 
Au      6.92968000      13.59330000      11.47610000       79    -125.34558222     -77.56327172    -130.64542097 
Au     10.77380000      14.74770000       9.43613000       79     -39.21179426     -25.95201595     191.27135222 
Au     12.76700000      14.48810000       7.63648000       79     174.39801541      83.77082493     -36.92672792 
Au     13.74880000       5.61532000      10.67620000       79     -92.83601155     172.47858401      20.69819171 
Au     14.75160000       8.13378000      10.41510000       79    -139.73030520    -138.51695743       9.18130890 
Au      8.24776000       6.86419000       5.96952000       79    -148.46537073      -2.40808940     129.41420680 
Au     12.75890000       7.94119000       5.95774000       79     119.29797229    -111.66584721    -109.97515400 
Au      9.45781000       6.32092000       9.91158000       79      -1.25040011    -196.79206432      -8.19280433 
Au     13.30070000      13.52130000       9.93760000       79      42.95025784     110.37348911    -157.38097209 
Au      9.68135000       9.37333000      10.68880000       79     -60.56736714      76.53002751    -171.08638476 
Au      8.60757000       9.86888000      13.33210000       79    -101.41906462    -124.69941003    -113.84213891 
Au     10.97050000       9.77513000       8.06136000       79    -144.19940340    -108.75609135     -78.57764807 
Au      7.42977000       5.74500000       8.26903000       79      39.65126168     187.04324674      47.31176829 
Au      4.40711000      10.21180000      12.97910000       79       5.81407496     120.60888778     155.61328620 
Au      4.90985000      11.80020000      10.86530000       79       4.97214142      90.41646048    -174.91696203 
Au     13.74760000       6.66340000       8.25606000       79      27.39651736     189.99020907     -44.14695251 
Au     10.13680000       8.84726000       5.56859000       79    -155.31632714     112.83471584     -44.05641324 
Au     11.41130000      13.58520000      11.88310000       79    -171.83678564      -4.34470583     -96.17195410 
Au      4.70341000       9.17958000      10.59080000       79    -148.20223031    -127.90679836     -21.71985234 
Au     10.70530000       6.26789000       5.10264000       79      96.76440995    -166.53853128      41.19913456 
Au      8.53071000      11.03820000       8.28834000       79     -35.38298717    -189.79380963     -39.01481983 
Au     11.00030000       7.10866000       7.72621000       79     124.08262778     -11.00534469     152.57190434 
Au     14.72000000      10.95630000      10.15960000       79      99.47774831    -158.64646553     -61.08419346 
Au     11.19270000      12.49530000       7.93158000       79     137.69981219    -119.75688434      74.11378076 
Au      5.99642000      10.13300000       8.52383000       79     -76.54497465     159.52697963     -86.53214286 
Au      6.32995000       8.47782000      12.65400000       79     149.74202617      70.38080119     106.86285858 
Au     13.39480000       9.63373000      12.17000000       79     -72.39677833    -123.12403819     135.62809381 
Au      8.05752000      15.02160000       9.50090000       79     147.83024867      27.22441589    -127.28256314 
Au      6.41498000      11.76040000      13.33040000       79      44.17157149    -151.70247642    -117.60541247 
Au      9.71223000       4.86886000       7.25754000       79     157.16440144      48.65120022     108.29687788 
Au     13.61890000      12.22740000      12.25730000       79     186.14389432      57.84401810      28.28996815 
Au      7.53901000       9.63241000       6.10935000       79     152.22801158     -20.99684795    -123.21350165 
Au      9.67946000      11.43650000       5.90913000       79    -191.85313717      42.87941889      12.22829986 
Au      6.62862000      12.78650000       8.98192000       79     159.67382203      62.65895319     -96.81904908 
Au      9.22730000      14.99720000      11.77170000       79      70.92705351     -72.64989247     168.78136250 
Au      9.37331000      12.53740000      10.34540000       79     175.86215049      35.30697898      81.37397238 
Au     11.05510000      11.03040000      12.72590000       79     142.56406461    -125.88993319     -51.21537196 
Au     11.24390000       5.85067000      11.84350000       79     -86.11050092    -176.53533429      14.69896258 
Au      8.58000000       8.33148000       8.19274000       79      30.11836826    -146.91370699     127.69122411 
Au      6.92443000       7.76186000      10.14610000       79     -39.90196367    -189.96811224     -33.40287036 
Au     12.04840000       7.91924000      10.25570000       79     -22.18835176     124.37522532    -151.11016675 
Au      8.86006000      13.62870000       7.52511000       79     115.77836767      20.12508382     158.07008794 
Au     13.45320000       7.09045000      12.68940000       79     133.86775361    -118.84042435     -82.17165087 
Au     13.63410000       9.35589000       8.21835000       79     -77.43621203      25.17129926    -179.34837853 
Au      6.03354000       7.76526000       7.42411000       79     -50.36949012     188.88088059     -24.13979152 
Au      7.25842000      10.60410000      10.98230000       79    -118.17370566    -156.40988259     -19.15009242 
