55
Lattice="20.0 0.0 0.0 0.0 20.0 0.0 0.0 0.0 20.0" Properties=species:S:1:pos:R:3:Z:I:1:momenta:R:3 pbc="F F F"
Au     13.76640000       8.89721000      12.41710000       79      29.36934306     -83.64221506     175.88980548 
Au      8.93314000       4.91413000       9.47297000       79      -2.16522888     150.86321724    -126.61517915 
Au      7.97058000      11.98330000       9.09970000       79     -95.72736034     133.35250949     108.85395178 
Au      8.15367000       5.63664000       7.05549000       79     187.72509140      59.13612163      -7.61651495 
Au      5.35385000      12.23250000      12.48630000       79     -67.12104955     -73.56372927     169.93806097 
Au     12.51280000      13.58570000       7.59761000       79      84.62201369      73.37331184     162.02244916 
Au     12.07810000      10.44160000      10.98140000       79     169.83993164      71.23608562      69.82563891 
Au      9.93142000      14.17590000       7.68821000       79      69.37585415    -179.30257023      42.81800197 
Au     10.71800000       6.58728000       7.12236000       79     175.41297067      89.10150513       9.32810951 
Au     11.68890000       8.57915000       8.83096000       79      18.46290437     170.99663984     -95.99516888 
Au     12.64390000      10.82830000       7.76186000       79    -137.37232881     -72.75695705    -120.95896247 
Au     14.49290000      11.33740000      11.96510000       79    -154.63511969      20.60194065    -120.24700380 
Au      5.24138000      11.18700000       9.83541000       79      12.47597124    -175.25519089     -89.02679557 
Au      7.57663000      13.75940000      12.51420000       79      -2.28016620    -196.86212729      -5.99214524 
Au     10.38550000      14.88690000      12.44810000       79     117.67596272     156.63299990      20.35370388 
Au     11.25920000       9.09580000       6.04207000       79     137.64999866    -137.91831203      28.75446396 
Au      8.96001000      14.27960000      10.27000000       79     -12.12041985    -181.62401090     -75.24371210 
Au     12.30030000      10.92090000      13.62430000       79     136.16816328     -68.37240169    -124.81685831 
Au      7.25703000       4.74195000      11.50300000       79     -55.00683030    -182.62354597     -49.18019114 
Au      6.42019000       7.64039000       7.24321000       79    -146.12726106     -94.39541361     -92.36953820 
Au      6.96363000      10.18310000       7.18199000       79      38.02981005      83.46769951    -174.30627874 
Au      8.72491000       8.05180000       5.94725000       79      36.48060233    -169.20111914     -93.99972902 
Au     12.52180000      13.18900000      11.89910000       79     182.99140195      72.77094846       3.78655440 
Au     10.87430000      12.05980000       6.15022000       79     -96.84495206     -88.85074454     146.70515525 
Au     13.69300000      12.46200000       9.64184000       79    -163.01655487    -103.55233211      38.70813193 
Au      8.89205000       7.66715000       8.66499000       79    -172.84735165      91.25261297     -24.34246855 
Au      6.68095000       8.94032000       9.77155000       79      -2.09231613     111.51504002    -162.34475718 
Au     11.64240000      14.70340000       9.89423000       79      74.32780173    -145.04042984    -110.60946489 
Au      5.14538000       9.64150000      12.04120000       79     110.87712980      67.38974487     148.19138469 
Au     11.28640000       7.82757000      11.84650000       79     180.34728110      57.15447322     -54.80900029 
Au      5.79046000       7.07940000      11.78440000       79     -77.48513046     -82.27040143     161.31781590 
Au     10.11890000      11.47710000      15.13300000       79      35.99103260    -122.07368116     150.32785525 
Au      7.43719000       6.05708000      13.65730000       79    -149.50364776     -56.83795862    -114.95176332 
Au      9.94829000      12.25470000      12.27720000       79      48.69508481    -172.28403596      82.11456503 
Au      9.52839000       9.74143000      10.41580000       79    -100.08502439     169.50557780      -6.83001527 
Au     13.48640000       7.35986000      10.36840000       79     -69.77844444     -14.07296599     183.65381140 
Au     14.30340000       9.75599000       9.74686000       79     -23.88394329     137.83405589     138.66193570 
Au      7.25813000       8.78302000      13.42500000       79      77.95462002       9.40369027    -180.63900451 
Au      9.01364000      10.46000000       5.07792000       79      29.65408932     194.72096442      -0.42793145 
Au      7.34269000      14.56330000       8.08854000       79    -152.74582867     111.70361568     -54.65177207 
Au      6.11992000      13.63730000      10.27180000       79    -122.56414356     -26.19293998    -151.94657855 
Au      9.66004000       7.18756000      13.94250000       79     114.43165044     -68.09486888     145.13541378 
Au      8.47054000       7.33642000      11.37190000       79     100.35818010     121.47215967     118.18862989 
Au     11.65780000      13.44480000      14.35960000       79    -130.78101047    -108.90757753      99.15275579 
Au      9.84156000       5.24530000      12.11490000       79     -83.79791445      85.18281199     156.58097010 
Au      9.10479000      13.80400000      14.59240000       79      13.20192426     192.27212694     -40.65637120 
Au      9.63089000      10.24460000       7.70727000       79     -26.73786867    -144.36671459    -131.29790638 
Au     10.80870000      12.22920000       9.37301000       79    -146.21952793       1.61907535     131.95844182 
Au     11.15150000       6.11256000       9.80685000       79     -74.39614919      16.57630403     181.62114759 
Au      9.77959000       9.70958000      13.18830000       79     -17.06302755     188.72584893     -53.73275685 
Au      7.46797000      10.99610000      11.58640000       79     -26.65994186    -116.42810950     156.61910784 
Au      5.72702000      12.58240000       7.66408000       79      41.77130504    -190.71387866      26.06101844 
Au      6.56366000       6.14376000       9.36048000       79     100.21894469     127.58803675     111.68374154 
Au      8.15936000      12.57030000       6.40702000       79      80.81386116     163.46737633      74.45360196 
Au      7.62981000      11.51900000      14.14940000       79      81.63954077     -79.97443693    -160.42093674 
