55
Lattice="20.0 0.0 0.0 0.0 20.0 0.0 0.0 0.0 20.0" Properties=species:S:1:pos:R:3:Z:I:1:momenta:R:3 pbc="F F F"
Au     15.09230000      11.46360000      11.93280000       79    -177.88451816      62.11884816     -57.39467768 
Au      6.71905000       8.25253000      10.80830000       79     150.97191874     118.90498415     -43.18433304 
Au     10.66350000      10.42830000      13.90160000       79     147.09616549      25.38107371    -128.50805935 
Au     11.14060000       9.84440000      11.28310000       79     109.44404579    -163.74789846       2.10445107 
Au     11.68750000      13.18470000       6.35851000       79    -184.39098028      40.47909858     -56.18906558 
Au     12.21530000       5.68769000       9.36804000       79    -142.46405777     121.55865646      61.01874634 
Au      6.76139000       9.11180000       8.16776000       79     -91.22577311     155.18234692     -79.95060755 
Au      7.75603000       9.70201000       5.64259000       79    -104.00493425     158.78389061      52.59707080 
Au     13.05090000      11.20690000       9.98838000       79     -71.82974292    -122.67248711     136.33690278 
Au      9.49105000       9.14450000       7.68944000       79     133.75082862    -144.01491320      12.89273983 
Au     10.08740000       7.55458000      10.01230000       79      91.30440139      11.65721889     174.13620433 
Au      8.41738000      11.60450000      12.45180000       79      40.68937908       1.95309440     192.70797071 
Au     13.04730000       5.54339000       6.96790000       79      19.59711994      79.49547020     179.14303009 
Au     12.61260000      12.22430000      12.65230000       79     -83.64055577    -176.22624227      27.28316492 
Au      6.20327000      11.00870000      10.97230000       79      -5.96946284      -4.96177021    -196.81348651 
Au     12.27120000      10.52660000       6.36806000       79      50.02448431     107.51915606     157.26723808 
Au      7.99851000      13.01290000       9.87370000       79     188.92931297     -32.34972397     -45.33224217 
Au      8.92242000      14.57690000      12.13350000       79      33.50707858    -185.61386757     -56.75006585 
Au      5.88340000      11.94060000      13.75790000       79     156.39100869     -79.70615484     -89.35649615 
Au     12.14640000       8.81960000       8.69527000       79      54.41977543     -57.92147101     180.22040217 
Au      8.59168000      10.20390000      10.02500000       79     119.00174621     143.63915125     -63.26279120 
Au     10.87060000       5.67277000      11.77740000       79      79.57869202     127.82123675    -126.98332700 
Au      7.85843000       6.77955000       8.71577000       79    -135.88060794      40.53655610     136.70790075 
Au     10.63040000       6.63848000       7.30220000       79      93.09565300     -16.16809857    -172.82243519 
Au      9.69999000       4.93964000       9.32856000       79     -62.22165584     -76.51891353     170.49669656 
Au     12.84240000       7.55789000      11.14310000       79    -130.34836710     131.79317713     -66.60077911 
Au     15.68280000      11.65980000       9.42510000       79     154.37511361     -91.84369364     -80.80137597 
Au      9.80713000      15.10830000       9.78047000       79      51.66587789      31.47091685     187.44604711 
Au      9.42786000      13.68970000       7.58334000       79    -115.07801335     -50.37408769     151.70795713 
Au     14.03900000      13.57230000      10.63050000       79    -111.28849505     131.33099016      95.72274555 
Au     11.73140000      14.67930000      11.73440000       79    -193.10531661      38.69139622       3.01905250 
Au     14.83140000       9.21612000      10.41260000       79     136.21188052      94.67001211    -106.20600046 
Au      8.81187000       8.54848000      14.91990000       79     144.20840978      27.02776886     131.41246661 
Au     10.72440000      11.49220000       8.41763000       79     178.94494101     -73.10251021     -37.82239032 
Au      6.91574000       7.00318000      13.40500000       79     -40.37671046    -170.96429283     -89.08834914 
Au     11.34570000       7.84048000      13.44480000       79      92.33154897     170.29907598     -35.62178979 
Au      8.96147000       8.53209000      12.32260000       79     190.04357738     -22.10611516     -46.80342393 
Au      8.22545000       7.27666000       6.18062000       79     -39.35966818    -181.94363875      64.36715748 
Au     10.49960000      12.55050000      10.91830000       79    -187.66588459      30.93784121     -51.18757530 
Au     14.29610000       7.21716000       8.58883000       79     -61.40632039    -183.99912992     -34.19628820 
Au     11.99090000      13.96230000       8.96802000       79     193.09645777      36.67600684     -12.82305121 
Au     13.82300000      12.45110000       7.71782000       79     129.93072421      18.12312378     146.91957464 
Au      6.44065000      13.58710000      11.92230000       79    -110.28804075     111.80205601    -118.88082462 
Au     12.92160000       7.94607000       6.25479000       79     -26.32637910     -76.14736450    -179.73397777 
Au     14.53290000       9.81757000       7.76712000       79     172.10052259     -94.13313673      17.78102405 
Au      7.74816000      13.65170000      14.31760000       79      66.33827704    -126.36707263     135.74386939 
Au     13.35710000       9.64676000      12.80060000       79     187.32773505     -53.21246823      29.53904247 
Au      8.18054000       5.93001000      11.33830000       79     134.54320160      94.12136359     108.78923633 
Au      9.30687000       6.15465000      13.84470000       79     116.61475577      73.75209122    -140.56112513 
Au      8.26475000      11.15910000      15.04720000       79    -190.28615004      50.82099362      -2.05178781 
Au     10.42670000       8.70485000       5.30529000       79     116.11823970     146.79856716     -61.33952405 
Au      9.76383000      11.40870000       5.78563000       79      87.63587681     131.88638720    -117.13981428 
Au      7.80249000      11.50780000       7.65791000       79     181.16370459     -32.23239938     -70.26084750 
Au     10.33730000      13.10000000      13.81780000       79    -122.96525228      98.86510308    -117.90267277 
Au      6.65642000       9.56440000      13.34090000       79     -77.09881682     151.44613900     -99.57731443 
