55
Lattice="20.0 0.0 0.0 0.0 20.0 0.0 0.0 0.0 20.0" Properties=species:S:1:pos:R:3:momenta:R:3:Z:I:1 pbc="F F F"
Au      6.47722000       8.02021000       8.79782000    -114.79491880    -119.67767451     106.27879828       79 
Au      9.30092000       4.75367000      10.33680000     -26.85366825     189.22151426     -47.64347976       79 
Au      8.77794000       6.55761000       8.59081000     100.46533884     119.04162684    -120.54712313       79 
Au      8.21935000       8.16689000       6.60902000     -15.86026111    -172.51905291      93.70928782       79 
Au      8.96316000       9.24921000       9.07921000     187.03411910     -49.77829105      36.55355185       79 
Au     11.42710000       6.15846000       9.08551000     133.15515879      -1.23275709    -145.13437263       79 
Au     11.69800000       9.24941000       9.76448000    -142.48191499     128.84941660     -43.50326268       79 
Au     13.50200000       8.12656000       8.43594000    -187.26543400      17.58683312      58.46505497       79 
Au     10.86900000       8.10641000       7.35526000     -77.70959962    -178.03518692     -32.56520335       79 
Au      6.97628000      10.35930000       7.45004000     126.05562213    -147.48095869      33.98748410       79 
Au      5.59173000      12.54760000       7.99702000     -61.84447536      71.35051614    -172.85880607       79 
Au      8.28008000      12.75560000       7.22690000     -33.74206545     149.47026958     123.75747918       79 
Au      7.02792000      14.50560000       8.71986000     174.83571753      68.91492177     -58.98311248       79 
Au      9.79280000      14.23890000       9.13197000     188.21065081       3.19702653      57.98561946       79 
Au      9.62171000      10.45170000       6.59330000     187.03411910     -49.77829105      36.55355185       79 
Au      5.26196000      10.43390000       9.59990000       0.48549563     -31.01165536    -194.50923795       79 
Au      7.76381000      11.90970000       9.79319000     193.28749934     -19.12701076     -32.70935922       79 
Au      5.45099000      12.95150000      10.63450000     -49.10149833     176.48689003     -72.36865781       79 
Au     14.22030000      10.87770000       9.00570000      43.68582774      -8.35883089     191.87881729       79 
Au     12.24340000      10.49650000       7.29706000      32.07774873      74.36048997     179.54759171       79 
Au     10.82240000      12.86880000       6.70628000      62.08231055      18.68921031    -185.99005957       79 
Au     12.61600000      13.06450000       8.52861000      70.32647214     -25.88730116     182.15333397       79 
Au     10.41630000      11.60670000       9.09872000     117.72366051     156.27656232     -22.68431060       79 
Au     14.60570000      13.46020000      10.16750000    -114.24516683    -118.51198543     108.16077519       79 
Au      5.93902000       8.04349000      13.20670000    -187.26543400      17.58683312      58.46505497       79 
Au      4.86731000       8.12768000      10.91880000     -15.86026111    -172.51905291      93.70928782       79 
Au      8.59757000       7.81796000      13.37050000     118.12455872       1.28986368    -157.60941279       79 
Au      7.31908000       6.62816000      11.09210000    -142.48191499     128.84941660     -43.50326268       79 
Au      7.27461000       9.38280000      11.22760000     188.21065081       3.19702653      57.98561946       79 
Au      9.10924000       5.33250000      12.84140000      49.35310623     -11.76001232    -190.32019109       79 
Au     10.03050000       7.39425000      11.09320000    -127.09700403    -122.74978828     -87.03242595       79 
Au      7.44444000      10.12400000      14.02920000     184.77654391      28.44891527     -62.00072711       79 
Au     10.16370000       9.51518000      14.65920000     -30.07162945     191.23660998      36.33260555       79 
Au     11.44910000       5.01336000      11.73970000     -50.61053606    -144.79376134     123.56837151       79 
Au     13.00350000       6.93219000      11.01580000     111.84895947     158.83654419     -32.50483992       79 
Au     12.68530000       9.03102000      15.08750000      -4.48127842     195.76893100     -21.21899909       79 
Au     11.29330000       6.91883000      13.67380000     190.23992621       9.43168532     -50.15591599       79 
Au     14.03360000       7.64977000      13.37020000     -15.28666811      88.96539277    -175.06364211       79 
Au     12.01310000       9.16115000      12.47770000      46.01954481     -55.14877259    -183.40288029       79 
Au     14.43550000       9.12303000      10.97930000     -33.74206545     149.47026958     123.75747918       79 
Au      7.67601000      14.57270000      11.14180000      62.08231055      18.68921031    -185.99005957       79 
Au      5.17429000      10.56240000      12.30720000     166.27671071     -78.53213226      70.57309544       79 
Au      7.29810000      12.27300000      12.52350000     171.89602805      20.51070192      93.95141706       79 
Au      8.74551000      14.53700000      13.56030000      87.94508551     168.47184032     -51.75618878       79 
Au      9.36770000      12.11250000      14.29880000      70.32647214     -25.88730116     182.15333397       79 
Au     10.04500000      15.68150000      11.56240000     185.84153546      49.97626883      41.96544261       79 
Au      9.63088000      10.31810000      12.01600000     191.10946070     -47.57327543      -3.12403872       79 
Au      9.96470000      12.93230000      11.60170000    -161.59188564      20.36900262     110.76537524       79 
Au     14.31150000      10.42470000      13.43440000      46.01954481     -55.14877259    -183.40288029       79 
Au     11.90600000      11.56200000      13.86810000      62.08231055      18.68921031    -185.99005957       79 
Au     11.39920000      14.19030000      13.47810000    -103.63516712     -20.13224195     166.28363447       79 
Au     12.59810000      11.59870000      11.09250000    -185.43695064     -11.44119002     -65.40671703       79 
Au     13.87770000      13.18490000      12.78940000     188.21065081       3.19702653      57.98561946       79 
Au     15.51750000      11.49500000      11.39080000     184.77654391      28.44891527     -62.00072711       79 
Au     12.20790000      14.38790000      10.85540000     -30.07162945     191.23660998      36.33260555       79 
