55
Lattice="20.0 0.0 0.0 0.0 20.0 0.0 0.0 0.0 20.0" Properties=species:S:1:pos:R:3:momenta:R:3:Z:I:1 pbc="F F F"
Au      5.89798000       8.07542000       8.71065000     111.18253494     -91.26832595     134.55236425       79 
Au      7.32725000       5.79521000       7.96342000     161.77716915      77.20922973     -81.62526881       79 
Au      8.42835000       7.78430000       9.75001000      -8.39420415     128.31180251     149.20261659       79 
Au      8.06989000       8.15217000       7.02921000     118.89648731    -119.72753684    -101.61074919       79 
Au      9.88807000       6.04530000       7.75765000     100.98028543      16.86547881     168.26865335       79 
Au     11.74910000       9.58131000       5.46459000    -103.63516712     -20.13224195     166.28363447       79 
Au     13.81500000       9.22545000       7.12654000    -172.59318431      59.08016886     -74.27602911       79 
Au     14.01480000       7.46655000       9.37162000     -29.45976395      77.32136181    -178.74375916       79 
Au     12.41060000       6.97946000       7.14413000     171.89602805      20.51070192      93.95141706       79 
Au     15.64420000       9.64882000       9.09426000     154.20551597    -116.90412155     -36.74081287       79 
Au     10.20780000       7.54103000       5.60505000    -167.19603437     -76.31972974      70.82786927       79 
Au     10.71640000       8.77139000       8.03890000    -156.53823342    -114.32217430      34.95746077       79 
Au     12.94490000       9.83785000       9.65943000     -28.40125801     100.12208116     167.22661131       79 
Au     11.41630000       6.73740000       9.81147000       8.54602058      89.49753626    -175.25113026       79 
Au      4.59283000      10.36310000       9.37735000      -2.66616314      14.84997571    -196.38781000       79 
Au      6.58651000      12.62240000       9.13193000    -120.51088249      13.02276150     155.25249437       79 
Au      6.79433000      10.46030000       7.62572000    -138.64385696    -139.88799947       2.24291195       79 
Au      9.00064000      13.57710000       9.84243000    -103.63516712     -20.13224195     166.28363447       79 
Au      8.60371000      12.71240000       7.17318000     171.89602805      20.51070192      93.95141706       79 
Au      9.12401000      10.84080000       9.00429000     -50.61053606    -144.79376134     123.56837151       79 
Au      9.29986000      10.36250000       6.16072000      23.43101576     103.31900732    -166.04810252       79 
Au     11.74960000      11.38470000       7.69567000    -149.04286318      70.10328603    -108.01646331       79 
Au     13.50780000      11.45880000       5.46785000      -4.48127842     195.76893100     -21.21899909       79 
Au     14.54230000      11.74970000       7.94205000     -30.53827697     -81.30157919    -176.78594113       79 
Au     13.09040000      13.68340000       6.62497000     -15.28666811      88.96539277    -175.06364211       79 
Au     10.85040000      13.95730000       7.93915000     196.84406474       3.24674163      -6.13799363       79 
Au     10.91180000      12.46250000       5.49950000     -19.71544451     186.89899263      58.95650874       79 
Au     13.28700000      13.65460000       9.32184000    -111.29800437     151.03518547      59.97440367       79 
Au      5.73006000       7.91236000      11.37230000     -28.40125801     100.12208116     167.22661131       79 
Au      6.28174000       8.55485000      13.96230000    -111.29800437     151.03518547      59.97440367       79 
Au      6.36307000       5.67473000      10.23610000     166.27671071     -78.53213226      70.57309544       79 
Au      7.54432000       6.22669000      12.53030000    -172.59318431      59.08016886     -74.27602911       79 
Au      8.75136000       7.52135000      14.57060000      23.43101576     103.31900732    -166.04810252       79 
Au      8.28357000       8.83325000      12.32590000    -138.64385696    -139.88799947       2.24291195       79 
Au      8.99185000       5.27402000      10.25980000       8.54602058      89.49753626    -175.25113026       79 
Au      4.44329000       9.95564000      12.12510000     171.89602805      20.51070192      93.95141706       79 
Au     10.16790000       6.76188000      12.25930000    -167.19603437     -76.31972974      70.82786927       79 
Au     12.72630000       7.83200000      11.90440000     -19.71544451     186.89899263      58.95650874       79 
Au     10.83320000       9.07373000      13.65830000    -191.01318444      30.41654959     -37.21020028       79 
Au     10.60780000       9.26473000      10.90070000     129.59469070     -90.71432325     117.35386581       79 
Au     14.92590000       9.14640000      11.47510000     185.84153546      49.97626883      41.96544261       79 
Au      4.92767000      12.29060000      11.18130000     -26.78536913     192.92499037     -29.29665876       79 
Au      6.50383000      11.16670000      13.23100000    -185.43695064     -11.44119002     -65.40671703       79 
Au      6.87191000      10.32720000      10.53510000    -160.43982366     -84.48473910      76.92329924       79 
Au      7.22015000      13.41120000      11.81840000     111.84895947     158.83654419     -32.50483992       79 
Au      8.62901000      10.24520000      14.66140000      -4.48127842     195.76893100     -21.21899909       79 
Au      8.40105000      12.85540000      14.21120000    -103.63516712     -20.13224195     166.28363447       79 
Au      9.08881000      11.43500000      11.94110000     190.23992621       9.43168532     -50.15591599       79 
Au     10.01290000      13.98070000      12.42480000      46.01954481     -55.14877259    -183.40288029       79 
Au     12.76150000      10.58220000      12.40120000      59.51976918      39.01654204     183.65976328       79 
Au     11.31600000      12.10090000      10.40320000     -76.60339454      65.87008724    -169.08238724       79 
Au     11.32930000      14.94600000      10.42140000    -161.59188564      20.36900262     110.76537524       79 
Au     10.91250000      11.85790000      13.84830000     100.98028543      16.86547881     168.26865335       79 
Au     14.54370000      11.75390000      10.72120000     159.98777653     114.64153884      -7.55189085       79 
Au     12.71900000      13.35400000      12.18260000      87.94508551     168.47184032     -51.75618878       79 
