55
Lattice="20.0 0.0 0.0 0.0 20.0 0.0 0.0 0.0 20.0" Properties=species:S:1:pos:R:3:momenta:R:3:Z:I:1 pbc="F F F"
Au      8.03493000       8.13584000       9.36650000     166.27671071     -78.53213226      70.57309544       79 
Au      5.95637000       6.04468000       9.80570000     159.98777653     114.64153884      -7.55189085       79 
Au      9.82173000       6.15715000       7.52264000      23.43101576     103.31900732    -166.04810252       79 
Au      8.65435000       5.62253000       9.94697000     -28.40125801     100.12208116     167.22661131       79 
Au      7.21285000       5.86232000       7.64483000    -172.59318431      59.08016886     -74.27602911       79 
Au      7.99500000       8.06741000       6.51738000     129.59469070     -90.71432325     117.35386581       79 
Au      5.62966000       8.09005000       8.06878000      59.51976918      39.01654204     183.65976328       79 
Au     15.49070000       9.80141000       9.27244000     -26.78536913     192.92499037     -29.29665876       79 
Au     14.01120000       9.47414000       7.11031000    -160.43982366     -84.48473910      76.92329924       79 
Au     12.45230000       7.32431000       7.18167000       8.54602058      89.49753626    -175.25113026       79 
Au     11.91220000       9.68462000       5.42900000    -185.43695064     -11.44119002     -65.40671703       79 
Au     14.04420000       7.41861000       9.42994000    -167.19603437     -76.31972974      70.82786927       79 
Au     10.35170000       7.65061000       5.39849000     111.84895947     158.83654419     -32.50483992       79 
Au     10.41410000       8.81739000       7.88824000    -111.29800437     151.03518547      59.97440367       79 
Au     11.27130000       6.83092000       9.66438000     171.89602805      20.51070192      93.95141706       79 
Au     12.76620000       9.60226000       9.57375000      87.94508551     168.47184032     -51.75618878       79 
Au      9.33733000      10.39420000       5.90199000      70.32647214     -25.88730116     182.15333397       79 
Au      8.32841000      12.75640000       6.82531000     185.84153546      49.97626883      41.96544261       79 
Au      4.64422000      10.51930000       9.03499000     191.10946070     -47.57327543      -3.12403872       79 
Au      6.91587000      10.35650000       7.40252000    -161.59188564      20.36900262     110.76537524       79 
Au      8.09886000      13.44550000       9.65630000     190.23992621       9.43168532     -50.15591599       79 
Au      5.99550000      12.68120000       8.23591000     -76.60339454      65.87008724    -169.08238724       79 
Au      9.18762000      11.09980000       8.74073000      46.01954481     -55.14877259    -183.40288029       79 
Au     13.51990000      11.77000000       5.59668000      62.08231055      18.68921031    -185.99005957       79 
Au     14.33480000      12.00920000       8.21156000    -103.63516712     -20.13224195     166.28363447       79 
Au     12.79860000      13.85900000       6.96412000    -185.43695064     -11.44119002     -65.40671703       79 
Au     10.83790000      12.60400000       5.56606000     188.21065081       3.19702653      57.98561946       79 
Au     12.88010000      13.91120000       9.64583000      49.35310623     -11.76001232    -190.32019109       79 
Au     11.76790000      11.30800000       7.61683000     184.77654391      28.44891527     -62.00072711       79 
Au     10.45050000      13.72110000       8.18798000     -30.07162945     191.23660998      36.33260555       79 
Au      5.88288000       9.00820000      13.47510000     -50.61053606    -144.79376134     123.56837151       79 
Au      5.50195000       8.49634000      10.76790000    -156.53823342    -114.32217430      34.95746077       79 
Au      9.75059000       6.89076000      12.03910000      -4.48127842     195.76893100     -21.21899909       79 
Au      7.05638000       6.65821000      12.07160000    -103.63516712     -20.13224195     166.28363447       79 
Au      8.03493000       9.21313000      12.07170000     161.77716915      77.20922973     -81.62526881       79 
Au      8.17476000       7.63868000      14.25220000     -89.33079684      80.96925506     155.75554756       79 
Au     12.41120000       7.76539000      11.86200000     -96.60321333    -170.60281111     -18.92887050       79 
Au     10.33730000       9.29782000      10.75090000     -15.28666811      88.96539277    -175.06364211       79 
Au     10.44770000       9.01829000      13.59030000     -29.45976395      77.32136181    -178.74375916       79 
Au     14.63370000       9.10295000      11.56520000    -149.04286318      70.10328603    -108.01646331       79 
Au      8.28497000      10.28340000      14.59640000     -46.87080845    -156.35880329    -110.23091250       79 
Au      6.96472000      10.87910000      10.24440000     126.30549747      70.92416193     133.46342827       79 
Au      8.31257000      12.90050000      14.59870000    -182.42948166     -71.78900532     -19.01644185       79 
Au      5.55668000      13.04880000      10.82320000      46.01954481     -55.14877259    -183.40288029       79 
Au      6.57301000      11.66380000      12.98410000      59.51976918      39.01654204     183.65976328       79 
Au      4.50559000      10.73130000      11.69470000     -76.60339454      65.87008724    -169.08238724       79 
Au      9.25000000      11.82600000      12.04140000    -161.59188564      20.36900262     110.76537524       79 
Au      7.74394000      14.06930000      12.22560000     100.98028543      16.86547881     168.26865335       79 
Au     14.17190000      11.73600000      10.84740000     159.98777653     114.64153884      -7.55189085       79 
Au     12.32550000      13.19210000      12.40040000      87.94508551     168.47184032     -51.75618878       79 
Au     10.32670000      14.37300000      10.88270000     -44.73181967     178.36060801      70.58583387       79 
Au     11.34230000      11.90900000      10.28530000       6.39207049    -160.31440359    -114.25513362       79 
Au     12.41000000      10.45400000      12.45890000    -138.64385696    -139.88799947       2.24291195       79 
Au     10.16210000      14.22100000      13.47120000    -191.01318444      30.41654959     -37.21020028       79 
Au     10.72950000      11.69920000      14.24010000     -19.71544451     186.89899263      58.95650874       79 
