55
Lattice="20.0 0.0 0.0 0.0 20.0 0.0 0.0 0.0 20.0" Properties=species:S:1:pos:R:3:Z:I:1:momenta:R:3 pbc="F F F"
Au      8.25337000       6.36480000      11.64860000       79      29.47387594      27.81784783    -192.75180959 
Au     13.57900000       9.58968000      13.29600000       79     155.03377697      26.71539375     118.51842834 
Au     13.05650000       7.02986000      12.50370000       79     156.83685534    -117.75908882     -18.18790611 
Au      8.82665000      12.24010000      13.26040000       79    -184.09460499     -69.99389320       2.41525397 
Au     11.12440000      10.74460000      13.63500000       79    -147.29417449     -18.90255031     129.39444298 
Au      8.61703000       9.79381000      14.34230000       79    -149.63051200      -5.43591605     127.97250806 
Au      9.90311000       4.47663000      10.63120000       79     -29.98202224     147.83869348    -126.65149496 
Au      4.99254000       9.63480000      11.62920000       79     -11.94942599     193.98178081      32.00128209 
Au      6.28544000      11.14460000      13.51240000       79    -168.99502139     -77.13987505      65.46697295 
Au     10.87020000       7.02081000      10.14920000       79    -136.88352815    -137.09193985     -35.55983511 
Au     10.74440000       5.88186000      12.73590000       79       9.42391055     -92.33087557     173.72967924 
Au     11.41440000       8.16937000      14.29400000       79     -80.40190357      91.93434940     154.52964578 
Au      6.83271000       8.27168000      13.00180000       79      57.94686322     -84.06260349     168.43824346 
Au     12.29790000       9.23096000      11.07970000       79     -56.91542836      42.05743487     183.81405906 
Au      9.79475000       8.59506000      12.25590000       79      68.42978874      99.44879375     155.63773179 
Au      7.62517000      10.32020000      11.43980000       79    -103.61727414     -36.15664069    -163.56026399 
Au      8.90418000       7.09621000      14.28320000       79    -113.30490755    -156.77404950      37.14427883 
Au     10.80180000       5.01043000       8.29209000       79    -178.70561634     -82.72912033       3.99968260 
Au     14.06650000       7.40027000      10.14820000       79       0.67707216    -182.51501621     -74.05141832 
Au      6.31038000       7.72566000      10.26010000       79     -93.66559348      -8.40850938     173.06604430 
Au      6.01111000      10.18390000       9.11641000       79     -92.28182301     173.55551308     -12.58376507 
Au      7.30679000       8.37575000       7.50095000       79     -13.31830503     167.57370285    -102.65222349 
Au      8.73146000       8.56747000       9.67585000       79      37.10192850     -62.40283928     183.09870200 
Au      8.31202000       6.00113000       8.95225000       79     -20.22087595    -160.44148983     112.45197482 
Au      9.91625000       7.38312000       7.24991000       79     134.47745554    -138.89455637      37.68180310 
Au     12.56530000       5.15101000      10.46700000       79     -85.73416435     127.27072165     123.48124795 
Au     10.66430000      13.72950000      11.91290000       79     -51.80115981       9.26930146     189.80653839 
Au     11.08660000       9.53215000       8.54373000       79      58.17786593    -176.62868564      64.91105796 
Au      6.18360000      14.75790000      10.33920000       79     -26.38032125    -135.23551622     140.75239226 
Au     14.93480000      12.85040000      10.49050000       79     145.44792241     -73.28188907     110.77214777 
Au      8.15063000      12.91290000      10.62320000       79     -63.98123545     169.70351360     -76.83046989 
Au      8.34219000      14.87900000       8.65083000       79      95.97536262     -88.81010211    -147.30002598 
Au     11.98130000       9.07350000       6.16532000       79      88.40312488    -167.72737738     -53.36868473 
Au      8.53314000      15.37080000      11.46780000       79    -115.66639674      87.42781766    -133.31715376 
Au     12.79210000      11.50580000       9.33900000       79      46.85803980    -103.98407234     160.58467837 
Au      9.31099000       9.85380000       6.25446000       79    -161.28241121     -65.51454463      92.15004285 
Au     13.59900000      11.19350000       6.47385000       79     164.54887349     100.79694736     -39.48981844 
Au      8.66567000      12.96870000       6.73448000       79    -186.59244149       2.36996815      63.03527705 
Au      6.70649000      13.76610000      12.77110000       79    -191.11059107       4.52042406      47.45639967 
Au      6.85477000      10.88940000       6.59001000       79    -169.36113623     -96.51708994     -28.23223344 
Au     12.53650000       6.98394000       7.97395000       79     -59.55382848     126.13295611    -139.06696595 
Au     10.32690000      11.09850000      11.04210000       79    -156.27859460    -111.55063719      43.92332334 
Au     10.58950000      15.66820000       9.81022000       79    -183.88900844      -0.10775296     -70.57352965 
Au     12.92320000      11.97420000      12.04680000       79     -88.30860475    -126.93127482    -122.00755682 
Au      6.44051000      12.85150000       8.41347000       79      37.88043005      87.60196495    -172.29849355 
Au     11.11290000      11.82810000       6.78044000       79    -130.60782033     125.60292006      77.20949335 
Au     14.79900000      10.15830000      10.77270000       79     124.82586715      94.11295909    -119.82093283 
Au     10.51060000      13.07970000       9.14150000       79       0.09612229    -123.12734133    -153.73825386 
Au     12.76370000      14.23940000      10.29880000       79     -76.33462864    -139.03912103    -116.77734975 
Au      5.48360000      12.18250000      10.99430000       79    -146.43593936     -25.95441212    -129.14598824 
Au     10.77040000      14.70220000       7.20336000       79      76.06735713     173.31914772      54.49800302 
Au     13.19250000      13.56210000       7.75039000       79    -160.18864912     -37.47439218     108.31005838 
Au     13.95460000       9.24574000       8.24209000       79    -127.85727748     149.76771333      -4.23683393 
Au      8.63020000      11.03990000       8.59338000       79     192.94244287      36.75768719     -14.76103967 
Au     15.31920000      11.61550000       8.35132000       79     -30.12627208     194.36421951      10.52425902 
