55
Lattice="20.0 0.0 0.0 0.0 20.0 0.0 0.0 0.0 20.0" Properties=species:S:1:pos:R:3:momenta:R:3:Z:I:1 pbc="F F F"
Au      6.39487000       7.49638000       5.84155000    -190.62508356      49.50159617      -2.73342587       79 
Au      5.59090000       9.19591000       7.80740000     108.02956726     -73.05701491    -147.60788357       79 
Au      5.77950000       6.52489000       8.27515000    -182.42948166     -71.78900532     -19.01644185       79 
Au      8.06552000       5.57185000       6.49138000     -15.28666811      88.96539277    -175.06364211       79 
Au      9.03870000       7.77866000       5.37479000     163.42469329      67.06458183     -87.12355369       79 
Au      8.12966000       7.78143000       7.96269000    -161.59188564      20.36900262     110.76537524       79 
Au      7.80705000       4.94499000       8.95302000      61.58023242     138.65545814     125.61186657       79 
Au     10.23340000       5.84756000       8.34063000     -29.45976395      77.32136181    -178.74375916       79 
Au     10.98080000       8.15569000       7.19028000      57.50755049    -181.99603561      48.64284924       79 
Au     13.69920000       8.61151000       6.82388000     -96.60321333    -170.60281111     -18.92887050       79 
Au     12.96320000       6.42067000       8.10789000      46.01954481     -55.14877259    -183.40288029       79 
Au     15.20550000       9.13943000       8.93646000    -183.45718865     -42.73759771      57.55657909       79 
Au     12.59570000       8.70505000       9.50273000     126.30549747      70.92416193     133.46342827       79 
Au      7.57827000       9.92852000       6.02828000      -2.66616314      14.84997571    -196.38781000       79 
Au      9.33705000      10.34330000       8.10366000     -86.41481623    -107.19986121    -140.84200870       79 
Au      6.76442000      11.70260000       8.00909000     121.61809899     154.71467899      -8.25882709       79 
Au      8.01695000      14.09070000       8.39692000     -96.15110837     122.87883453     120.21463516       79 
Au      8.84545000      12.40070000       6.35253000     -44.73181967     178.36060801      70.58583387       79 
Au      4.97500000      10.92560000       9.91826000     159.98777653     114.64153884      -7.55189085       79 
Au     10.29890000      10.23750000       5.46346000     158.38325481      62.74619693      98.86081877       79 
Au     10.53780000      13.07460000       8.35801000     -81.22015686      15.25287116    -178.79160540       79 
Au     11.52510000      12.65710000       5.84524000     194.42560947      20.06880247      24.32545313       79 
Au     12.05300000      10.74050000       7.69036000    -146.99893658      51.13661030    -120.71520970       79 
Au     12.97020000      10.57710000       5.19746000      87.94508551     168.47184032     -51.75618878       79 
Au     14.68330000      11.10830000       7.16548000     108.32541515    -160.38134666      36.59549424       79 
Au     13.21130000      13.18640000       7.91521000     -67.76347243     115.07750441    -144.77942500       79 
Au     13.87980000      11.34160000       9.81405000      41.41126621      31.60224414     189.95317138       79 
Au      7.32787000       9.61590000       9.95311000     -46.87080845    -156.35880329    -110.23091250       79 
Au      4.99323000       8.29322000      10.28490000     -30.53827697     -81.30157919    -176.78594113       79 
Au      7.23221000       6.89986000      10.63910000     166.27671071     -78.53213226      70.57309544       79 
Au      6.59329000       8.83764000      12.52010000     111.18253494     -91.26832595     134.55236425       79 
Au      9.84909000       8.04814000      10.06570000     111.84895947     158.83654419     -32.50483992       79 
Au      8.43763000       9.33577000      14.56780000     190.23992621       9.43168532     -50.15591599       79 
Au      8.94957000       7.40784000      12.76580000      62.08231055      18.68921031    -185.99005957       79 
Au      9.48551000       5.39313000      10.98200000      70.32647214     -25.88730116     182.15333397       79 
Au     14.54960000       6.94648000      10.25940000     117.72366051     156.27656232     -22.68431060       79 
Au     10.87190000       8.06319000      14.67720000    -114.24516683    -118.51198543     108.16077519       79 
Au     13.20070000       9.31764000      14.14080000     -33.74206545     149.47026958     123.75747918       79 
Au     11.14850000       5.97608000      13.09950000     166.27671071     -78.53213226      70.57309544       79 
Au     13.53610000       7.01592000      12.79600000    -172.59318431      59.08016886     -74.27602911       79 
Au     11.99810000       6.18767000      10.59370000      23.43101576     103.31900732    -166.04810252       79 
Au     11.54080000       8.70870000      12.14420000    -138.64385696    -139.88799947       2.24291195       79 
Au     14.33910000       9.29033000      11.61610000       8.54602058      89.49753626    -175.25113026       79 
Au      7.81110000      13.84040000      12.16490000     171.89602805      20.51070192      93.95141706       79 
Au      8.55283000      12.13590000      10.19510000    -167.19603437     -76.31972974      70.82786927       79 
Au      9.07465000      10.11490000      12.09040000     -19.71544451     186.89899263      58.95650874       79 
Au      6.13627000      13.34500000      10.13050000    -191.01318444      30.41654959     -37.21020028       79 
Au      6.50000000      11.45110000      12.06640000     129.59469070     -90.71432325     117.35386581       79 
Au      8.31772000      11.91680000      13.97960000     185.84153546      49.97626883      41.96544261       79 
Au      9.70807000      14.58060000      10.45770000     -26.78536913     192.92499037     -29.29665876       79 
Au     10.33600000      12.75390000      12.38190000    -185.43695064     -11.44119002     -65.40671703       79 
Au     12.77480000      11.38060000      12.40510000    -160.43982366     -84.48473910      76.92329924       79 
Au     12.21090000      13.41330000      10.48200000     -33.74206545     149.47026958     123.75747918       79 
Au     11.08890000      10.93230000      10.32100000    -138.64385696    -139.88799947       2.24291195       79 
Au     10.80890000      10.68560000      14.18150000     -30.07162945     191.23660998      36.33260555       79 
