55
Lattice="20.0 0.0 0.0 0.0 20.0 0.0 0.0 0.0 20.0" Properties=species:S:1:pos:R:3:Z:I:1:momenta:R:3 pbc="F F F"
Au     15.32850000      10.09870000       9.12488000       79      70.77975063      89.91707220     160.31515571 
Au      7.70391000       8.03138000       8.26617000       79     110.54489005    -157.68344341     -41.37101739 
Au      8.02856000      12.19650000      12.66550000       79    -148.85405544       5.28624706     128.88106103 
Au     12.51420000      11.72460000      13.44230000       79     113.54693427    -132.54847170      91.28964064 
Au      7.82952000       7.11335000      10.84790000       79     193.44844263      -9.37610643     -35.85513623 
Au      9.32428000       5.94395000       8.82038000       79      45.57934522     110.73823554    -156.38212366 
Au     14.67050000      12.79050000       9.54013000       79      23.72072552    -167.84186561    -100.31070457 
Au     14.05320000       7.29386000      13.45750000       79      77.39391433     180.58190998      14.00563939 
Au     10.30260000       7.94780000       7.09137000       79      13.33840923    -112.32140474     161.25070852 
Au      5.63460000      10.81840000      12.32450000       79      70.02666598     173.26313555     -62.22502740 
Au      8.94403000      12.20510000       6.06836000       79     -31.65925401     163.48184006    -105.20067362 
Au      7.31214000       7.24733000      14.36870000       79    -195.14430826      20.95808251      16.59095703 
Au      9.11849000      12.55120000      10.10830000       79       9.86325268    -116.91020844    -158.21037112 
Au     10.99950000      14.63150000      10.21380000       79     132.56617686      52.80210269    -135.77167903 
Au      8.41315000       4.56175000      10.98890000       79     145.33973103      74.58840832    -110.03969306 
Au      7.65094000      10.76290000       8.44095000       79     -26.40367166     175.47727774      85.47732590 
Au     10.65500000       6.00770000      11.20280000       79     134.57042562      20.74272430    -142.32477669 
Au      5.65339000       9.45685000       9.85765000       79    -170.97673843      31.03622164     -92.73354293 
Au     14.66320000       9.16473000       6.75661000       79    -181.49882997      71.14161029     -28.15755897 
Au     12.00010000       9.14573000      14.14330000       79    -124.86779871     -36.50492019     147.88923480 
Au      6.42462000      11.59470000       6.03499000       79    -139.91085333     125.88820781      58.07679724 
Au     13.66540000      10.82960000      11.10690000       79      74.66922184    -134.92879915    -122.53378551 
Au      9.05217000       5.65198000      13.36360000       79    -128.70096662     -65.99075798     133.70520998 
Au      7.29019000      13.33730000       7.96285000       79     106.35129205     162.97656275     -30.39481530 
Au      5.93652000       8.22794000      12.33290000       79     -40.27873820     191.18376437      24.94380910 
Au     14.44900000       9.83563000      13.41130000       79     -65.76666083     -82.43631306     166.35745470 
Au     11.86850000      12.11070000       9.40695000       79     -54.87215019     -30.38398797     186.71278084 
Au     11.57300000       6.54524000      13.67240000       79    -167.44559697     -93.50108228      44.89233553 
Au      5.71143000       9.32983000       7.09626000       79    -139.96228762     119.36126460      70.42193324 
Au      5.05205000      11.62680000       8.26785000       79      54.57924246     179.11252924      61.11963911 
Au      9.95532000      10.88520000      14.10630000       79      98.06715719    -108.81239750     131.67572651 
Au     10.51200000      13.22170000      12.45090000       79     141.87503978    -113.16257872      76.56047275 
Au      6.53444000       5.55459000      12.53230000       79     -86.18078574     -60.22662861     166.55758013 
Au      7.55557000       9.80506000      13.94980000       79     104.77936096     -12.28699391     166.33134828 
Au     10.00760000      13.83470000       7.90928000       79     114.85408625      78.03230823     139.69717201 
Au      9.67549000       8.14055000      15.16120000       79      38.21423674     172.97070392      86.11974116 
Au      6.40060000      12.34640000      10.39640000       79     -31.03741038    -190.83657130      37.60165334 
Au     12.80300000      14.20450000       8.23952000       79      -6.78792235    -174.12242019     -91.82107067 
Au     11.63350000      12.54030000       6.34747000       79      80.40134700    -152.39216986     -95.43611523 
Au     10.24430000      10.65600000       7.85829000       79     -22.12809770    -171.90374321     -93.56950617 
Au     10.03630000       8.53548000       9.75231000       79      89.10654436    -165.64017188     -58.47357809 
Au     12.88080000       7.36946000       6.62774000       79     -31.79604284     -74.11073601     179.70089758 
Au     10.76590000      10.69730000      11.52340000       79      80.14777384     150.43648194      98.69651146 
Au     15.08340000       8.38620000      11.23620000       79    -102.04091018      36.96071660    -164.36958417 
Au     12.63330000       9.35583000       8.75535000       79     121.50837959     -71.82569131     137.37753048 
Au     13.51510000       6.07404000      11.16590000       79      -2.22667884     104.64340248     166.85503391 
Au     13.01080000      13.52180000      11.44480000       79     150.29758639     125.55922393     -21.00759227 
Au      8.31267000       9.57185000       6.06987000       79     -79.83320867     -53.90833150     171.80323836 
Au     13.80880000      11.60060000       7.39670000       79     154.79447910      -9.18963843    -121.44966821 
Au      9.60137000       8.30758000      12.62390000       79     -50.62782224     -84.86929271    -170.38142179 
Au      7.98147000       9.99003000      11.12430000       79     -93.21994258     -29.85047199     170.92335636 
Au     14.53670000       7.41308000       8.86096000       79      66.07402408    -173.22590847      66.50421114 
Au     11.97550000       6.59009000       8.96045000       79    -109.70714894      -5.14761929     163.50426786 
Au     12.07920000       9.85423000       6.04601000       79    -191.35937981     -26.19525535     -38.61603913 
Au     12.34010000       8.37684000      11.49140000       79    -163.45092346      45.62079451     -99.99170390 
