55
Lattice="20.0 0.0 0.0 0.0 20.0 0.0 0.0 0.0 20.0" Properties=species:S:1:pos:R:3:Z:I:1:momenta:R:3 pbc="F F F"
Au     10.86600000       6.57004000      10.81920000       79     181.02621285     -64.86353900     -42.63840628 
Au      6.64129000       6.51201000       9.14189000       79     110.13945081     134.01257468      93.30451931 
Au      6.25363000       6.56090000      11.88860000       79     -27.39690841    -120.72103419    -153.20458034 
Au     12.41320000      11.04260000      10.69260000       79    -195.95469003      -6.17041059      18.96015853 
Au     11.64530000       7.27342000      13.43470000       79     -78.02775271     172.39192271      54.66714656 
Au     10.25450000       5.09681000      12.99520000       79     -60.63831417    -149.63975617    -112.81285542 
Au     13.72450000       9.51784000       8.82760000       79    -157.01579277    -118.61521474      -8.50139834 
Au      8.43458000       5.35767000      10.81330000       79      83.25121934     -43.89389903     173.02705635 
Au      8.35253000       8.26671000       9.97410000       79     -86.63300233     164.05820592     -66.14703395 
Au      9.62338000       6.30160000       8.50555000       79     -57.31924393      89.15053355    -166.01954333 
Au     10.87600000       8.96303000       9.13238000       79      55.26487536     106.99620326    -155.86342792 
Au      7.78774000       4.86077000      13.42200000       79      -4.79310058     164.68306560    -107.94589484 
Au     13.03190000       8.09290000      11.00500000       79      47.47185272    -167.32688222      92.43343447 
Au     13.92290000      12.36080000      12.29970000       79    -177.88451816      62.11884816     -57.39467768 
Au     10.36360000       9.38104000      14.49760000       79     147.09616549      25.38107371    -128.50805935 
Au     10.57710000       9.23424000      11.84110000       79     109.44404579    -163.74789846       2.10445107 
Au     15.00460000      11.76690000       9.75615000       79     -71.82974292    -122.67248711     136.33690278 
Au      7.64590000       9.90158000      12.34290000       79      40.68937908       1.95309440     192.70797071 
Au     11.45930000      11.89010000      13.54360000       79     -83.64055577    -176.22624227      27.28316492 
Au     14.87220000       9.92785000      11.46020000       79     154.37511361     -91.84369364     -80.80137597 
Au      7.76051000       9.09003000      14.98440000       79     144.20840978      27.02776886     131.41246661 
Au      6.66202000       6.78636000      14.60550000       79     -40.37671046    -170.96429283     -89.08834914 
Au      8.70989000       7.40773000      12.69550000       79     190.04357738     -22.10611516     -46.80342393 
Au     12.93610000       9.74334000      13.24570000       79     187.32773505     -53.21246823      29.53904247 
Au      6.16283000      11.18990000      14.26030000       79    -190.28615004      50.82099362      -2.05178781 
Au      8.79555000      11.60710000      14.33690000       79    -122.96525228      98.86510308    -117.90267277 
Au      5.44164000       8.78267000      13.34030000       79     -77.09881682     151.44613900     -99.57731443 
Au     12.39240000       7.07908000       8.43389000       79     -88.06468641     145.53642331      99.29533031 
Au      9.39051000       6.71956000      15.05730000       79    -104.74888959    -146.26115101     -80.19443844 
Au      9.56506000      11.69890000      11.64400000       79     -27.75129631     133.20043722    -142.41949024 
Au      7.18078000      12.87570000      12.32950000       79     -80.65464230      24.27620812     178.04857910 
Au      9.51129000      13.91870000      13.17930000       79    -184.97861756      15.06483561      65.96790050 
Au     11.46970000      13.66770000      11.40630000       79      15.76863153     -41.08103217     191.98828396 
Au      5.23628000      11.21440000      11.73680000       79      99.54460150      22.52408222     168.46168750 
Au      8.85309000      13.99150000      10.41640000       79     125.13784886    -116.35341915     -97.97041777 
Au      7.87020000       7.39273000       6.87204000       79    -159.61876369      68.54383697     -92.84069589 
Au      9.99860000      10.17140000       4.92971000       79     165.12371759     -87.17572846     -62.69252251 
Au      7.53237000      10.98420000       9.74312000       79     -53.71356654    -175.65434669      71.10699952 
Au     10.65630000      12.43370000       6.46991000       79    -173.01048782     -93.23129446     -13.08048015 
Au     11.08560000      14.14910000       8.71828000       79      88.43239804      73.31408227    -160.00174511 
Au      8.80691000       7.97585000       4.53057000       79    -174.03505616     -67.08392632      63.30361900 
Au      5.63367000       8.79585000      10.58260000       79     185.93679224      55.03998213     -34.55302852 
Au     12.91950000      12.17510000       8.09063000       79     -11.48047165     172.67319619      94.06363915 
Au     11.90490000      10.04520000       6.86552000       79      14.04977661     -40.83664209     192.17381342 
Au      8.25424000      12.07160000       5.44317000       79     111.15988112    -117.12590012    -112.78655271 
Au     10.55360000       7.82020000       6.48669000       79       4.42741559     186.84097535      62.18239335 
Au      8.86678000      10.02790000       7.37266000       79      92.74923445    -102.11410855    -140.59192888 
Au     10.31960000      11.67530000       9.04762000       79     -37.41655793     193.33188884       4.31092487 
Au      6.24948000      13.20850000       9.73988000       79      33.27431633     161.61553176     107.55948070 
Au      4.75336000      11.02700000       9.20285000       79    -108.15890739    -153.25594035      60.08385490 
Au      6.36342000      11.68180000       7.24672000       79     182.16540533      46.68736471      58.58205526 
Au      8.42068000      13.23120000       7.90160000       79     -48.70244344      57.18971089     182.08023257 
Au     13.55970000      13.85160000       9.99864000       79     -35.34346775     103.84343455    -163.59456749 
Au      7.10213000       9.68072000       5.40139000       79    -158.42370954       2.82520908    -117.00319898 
Au      6.20057000       9.07117000       7.98949000       79    -148.87509928     -95.68999252     -86.46058216 
