55
Lattice="20.0 0.0 0.0 0.0 20.0 0.0 0.0 0.0 20.0" Properties=species:S:1:pos:R:3:momenta:R:3:Z:I:1 pbc="F F F"
Au      9.28867000       9.92136000       9.62065000      87.12209465    -134.63621839    -114.36184435       79 
Au      9.41124000       5.19461000       7.17269000      93.91841439     -95.07166239     144.69454921       79 
Au      7.47284000       6.33291000       8.68829000       2.33585551     196.92502542       3.29852481       79 
Au     10.15010000       6.83901000       5.02806000     166.27671071     -78.53213226      70.57309544       79 
Au     11.69520000       4.97938000       6.12456000    -104.24418792    -165.45291434      23.54324839       79 
Au     11.59450000       5.78166000       8.69143000      -6.75785273      56.84719926     188.46360255       79 
Au      7.02412000       8.78935000       7.52214000    -172.59318431      59.08016886     -74.27602911       79 
Au      7.59631000       6.67766000       5.98682000     -25.80764308    -190.60323121      42.42848020       79 
Au      9.67386000       7.98543000       7.46361000     -99.21874260     151.58245431     -77.29296724       79 
Au      8.49824000       8.91879000       5.08493000      23.43101576     103.31900732    -166.04810252       79 
Au     13.72520000       9.57403000       7.02653000    -138.64385696    -139.88799947       2.24291195       79 
Au     11.97720000       8.46095000       8.99857000       8.54602058      89.49753626    -175.25113026       79 
Au     12.30880000       7.40341000       6.50069000     171.89602805      20.51070192      93.95141706       79 
Au     14.35500000       9.49042000       9.70328000      65.90067194     161.25250649     -91.92677908       79 
Au     11.08170000       9.61991000       5.49119000     140.35496585      12.47792749    -137.62480521       79 
Au      8.74668000      10.76450000       6.95722000     118.89648731    -119.72753684    -101.61074919       79 
Au      6.94640000      11.12910000       9.01375000     139.92139494     -41.64603915    -132.22485691       79 
Au     11.44290000      10.81660000       7.82554000      -2.73485665     133.43876763     144.85309101       79 
Au     12.94250000      11.77010000       5.85111000    -156.22359396      77.62144048     -91.45984250       79 
Au     13.99670000      11.84300000       8.53200000     -30.53827697     -81.30157919    -176.78594113       79 
Au      9.86863000      12.73450000       8.89003000     111.18253494     -91.26832595     134.55236425       79 
Au      7.72944000      13.24460000       7.46320000     135.57544469      81.09823972     117.63577871       79 
Au     10.37310000      12.52950000       5.90593000     191.10946070     -47.57327543      -3.12403872       79 
Au      9.84200000      14.83930000       7.03140000    -167.19603437     -76.31972974      70.82786927       79 
Au     10.91900000      15.32040000       9.49532000     -19.71544451     186.89899263      58.95650874       79 
Au     12.19430000      13.64460000       7.66134000    -191.01318444      30.41654959     -37.21020028       79 
Au      8.30780000      15.26500000       9.10075000     129.59469070     -90.71432325     117.35386581       79 
Au      7.59505000       6.07596000      11.48000000     133.50993218     -58.16611008     132.61826333       79 
Au      6.96363000       8.54637000      10.18700000     185.84153546      49.97626883      41.96544261       79 
Au      9.60199000       7.18364000      10.20150000     -60.08184053    -175.97842848      64.94279998       79 
Au      9.31409000       4.54898000       9.79021000     -26.78536913     192.92499037     -29.29665876       79 
Au      9.25714000       4.32062000      12.31670000     111.57160518      27.92237857    -159.89971799       79 
Au     11.34460000       8.62065000      11.67170000    -180.39914141     -72.09711695      32.46471361       79 
Au      9.89814000       6.63055000      13.25570000      59.09762428     186.78041365     -20.40465643       79 
Au     12.54290000       7.22499000      13.42780000     -41.06510043       7.27945745    -192.50056922       79 
Au     13.44440000       6.99669000      10.70440000     119.26620943     148.90841007      48.96589447       79 
Au     11.44530000       5.49613000      11.43730000     187.65434983      -8.47132192      59.24427244       79 
Au      8.32059000       8.56275000      12.49080000     109.83859521     103.42705789     126.62594056       79 
Au     10.46540000       9.13927000      14.26030000     -99.15619138      45.49445947    -163.99422548       79 
Au     14.16690000       8.99682000      12.24230000    -133.82411645     -97.00373573    -107.13161641       79 
Au      7.08111000      10.87040000      11.74620000    -158.98165818      91.63489319     -71.57989126       79 
Au     14.42390000      11.63780000      11.45590000    -121.63586702    -152.52027099     -27.16771824       79 
Au     12.07940000      11.07550000      10.47980000     128.65402217      98.48286442    -112.00477721       79 
Au     13.06170000      13.73190000      10.29400000    -160.67984815      -0.44954109     113.91921012       79 
Au     10.54040000      12.07270000      14.43280000     191.56312269      11.74192540      44.28881726       79 
Au      8.20274000      10.65560000      14.28080000     143.80418218     128.20336205      40.98850165       79 
Au      7.79193000      13.16670000      10.56540000      85.80428388    -141.39691709    -106.95951957       79 
Au      9.75776000      10.87800000      12.12970000    -164.67913246       4.64215725     107.95849124       79 
Au     12.48720000      10.64400000      13.28560000      63.84673115     126.43831906    -136.86763137       79 
Au     10.57960000      13.30260000      11.47710000     150.08543073    -101.93473353      76.67773932       79 
Au      8.32369000      13.11560000      13.19080000     -12.04545832    -142.44401795     135.50059338       79 
Au     11.89630000      15.63640000      11.94100000    -190.90257450     -48.28195847      -4.56745649       79 
Au     10.46670000      14.64520000      13.86470000    -166.47569228     -61.42486182      85.49053956       79 
Au     12.76010000      13.27540000      13.01260000     -89.50260351      73.15944412    -159.47658707       79 
Au      9.09614000      15.45300000      11.66370000      41.35496946      47.26415990     186.68601397       79 
