55
Lattice="20.0 0.0 0.0 0.0 20.0 0.0 0.0 0.0 20.0" Properties=species:S:1:pos:R:3:momenta:R:3:Z:I:1 pbc="F F F"
Au      7.46408000       7.90362000       6.60475000     -30.80880861     -76.82619778     178.72983738       79 
Au      5.91554000       7.82341000       8.97804000      53.89326759    -184.40797797     -43.41676511       79 
Au      9.80865000       4.94120000       8.05873000    -156.40658434     -91.56126685     -77.13181516       79 
Au      4.99554000       9.07067000       6.87950000    -174.67319165     -46.07373799     -78.50024782       79 
Au      8.45324000       7.01481000       8.95828000     -12.65387679    -172.18598001     -94.80332173       79 
Au     10.01510000       9.52764000       8.71972000     181.60694202     -41.76924602      63.79694991       79 
Au     10.28860000       7.42260000       6.84658000      36.93625898      17.03568559    -192.72078329       79 
Au     12.11560000       4.63544000       9.47323000     163.29160843      -3.03077350    -110.10207606       79 
Au     15.58150000       7.59968000       8.22911000     -61.28972534     147.80164026    -114.86534214       79 
Au     11.99090000       5.22515000       6.86639000     168.81938760     -81.91371653      59.88288185       79 
Au     14.32370000       5.21715000       7.94869000    -195.57853694      -5.39152598      22.71055831       79 
Au     13.07280000       7.53411000       7.40069000     -79.32222760     174.58759609      44.97730121       79 
Au     11.12990000       7.11736000       9.53464000    -137.69143803      76.14736747    -118.48395859       79 
Au     12.77360000       9.36217000       9.48273000    -105.53422365    -158.70854568     -49.69836303       79 
Au      9.21768000       9.81119000       5.97963000      42.42633924    -189.43337722     -33.32871820       79 
Au      5.15421000      11.68700000       6.97046000    -160.94050272      -8.37171014     113.24253254       79 
Au      6.71075000      10.24900000       5.35790000     -67.38532792      22.89245187     183.65989042       79 
Au      4.84893000      10.38000000       9.27330000      39.84707975    -143.77824860     128.59170886       79 
Au      7.65240000      12.43820000       6.59326000     184.04534946     -54.82654241     -43.78540523       79 
Au      8.81117000      13.93760000       8.55549000    -159.09634268     -87.56846748      76.26217523       79 
Au      7.34549000      10.18470000       8.13709000     -38.59223082     -73.96172404     178.42675029       79 
Au      6.48565000      12.63360000       9.08431000     -42.71398388     173.82804957     -82.18957894       79 
Au     10.14610000      11.94400000       7.26119000     137.29798306     -77.73772594     117.90636936       79 
Au     14.56920000       9.95147000       7.56070000      56.34083338     186.70858603      27.59377683       79 
Au     11.26440000      14.28010000       7.61197000      -5.01053183    -188.19936984     -57.89381560       79 
Au     11.74910000      11.92850000       9.44464000    -178.39840801      78.02338150      29.70121342       79 
Au     13.08620000      12.24800000       7.14509000    -166.26553353      34.85862343      99.68174785       79 
Au     11.90330000       9.87057000       6.76124000     195.14007542       7.28489471     -25.75040577       79 
Au     14.51520000      11.81130000       9.48809000    -100.51572269     163.83865795      43.00332282       79 
Au     13.39890000      14.20800000       8.96252000      16.96588974    -103.09628325    -166.97040782       79 
Au      8.03739000       9.09948000      10.68430000     101.52793959     155.75248219      65.03109944       79 
Au      9.38549000       7.21313000      12.26130000     -14.11528999    -193.36314189      34.74559065       79 
Au      9.16685000       8.68622000      14.46600000     195.81773753     -21.24078129      -0.21213721       79 
Au      5.20181000       8.69430000      11.30920000     119.76043614     138.08586551      73.38619629       79 
Au      6.99148000       6.59973000      11.23010000    -155.22370655    -115.89917359      35.62000292       79 
Au      6.98898000       8.63940000      13.12070000     -90.32787349     -26.76886885     172.97429015       79 
Au      9.55922000       5.11482000      10.65990000      70.63261222      74.42162473    -168.13166860       79 
Au     13.89610000       6.68936000      10.03280000      96.00580719     139.59628985    -100.45677164       79 
Au     10.86970000       9.39367000      11.64660000    -160.11439626    -105.81944010      44.28801565       79 
Au     13.49360000       8.24248000      12.10610000      21.48366917     195.74534192      -4.24443138       79 
Au     11.59860000       7.87203000      13.90640000    -194.85425994      22.05524122     -18.47121650       79 
Au     11.85240000       6.05044000      11.88510000      64.91909471    -185.62588103     -11.15103390       79 
Au     15.27820000       9.27132000      10.22790000       7.70964107    -146.54209258    -131.38408830       79 
Au      8.90332000      11.75790000      10.06860000    -146.96725796     -29.92284854     127.67556675       79 
Au      6.41428000      11.09520000      11.33220000      86.19957613     176.56298977     -13.81831532       79 
Au     10.01710000      12.94870000      14.35950000    -118.36644506     -96.77337584    -124.17769741       79 
Au      8.63587000      10.82720000      12.89410000       4.51556453    -106.16070112    -165.84727112       79 
Au     13.47340000       9.86550000      14.21060000     185.53218893     -64.93761310     -12.51860212       79 
Au     11.01330000      10.52430000      14.30510000     -65.17459409     108.45025511    -150.95236525       79 
Au     13.36830000      10.91010000      11.80450000    -170.14687968      76.69991521      62.95208071       79 
Au     11.36670000      14.63240000      12.95270000     150.50981529     101.57910052     -76.31699653       79 
Au     10.83370000      12.19690000      11.99810000      96.91797393    -161.51351396      57.58552996       79 
Au     10.88100000      14.37940000      10.26950000      39.18325776     139.34551627    -133.57882141       79 
Au     13.27260000      13.57420000      11.46220000     147.06411442    -100.64183085     -83.89976315       79 
Au     12.72690000      12.56280000      13.97530000       1.01280344       2.13488789     196.95232572       79 
